*SPEF "ieee 1481-1999"
*DESIGN "user_project_wrapper"
*DATE "11:11:11 Fri 11 11, 1111"
*VENDOR "OpenRCX"
*PROGRAM "Parallel Extraction"
*VERSION "1.0"
*DESIGN_FLOW "NAME_SCOPE LOCAL" "PIN_CAP NONE"
*DIVIDER /
*DELIMITER :
*BUS_DELIMITER []
*T_UNIT 1 NS
*C_UNIT 1 PF
*R_UNIT 1 OHM
*L_UNIT 1 HENRY

*NAME_MAP
*1 io_in[0]
*2 io_in[10]
*3 io_in[11]
*4 io_in[12]
*5 io_in[13]
*6 io_in[14]
*7 io_in[15]
*8 io_in[16]
*9 io_in[17]
*10 io_in[18]
*11 io_in[19]
*12 io_in[1]
*13 io_in[20]
*14 io_in[21]
*15 io_in[22]
*16 io_in[23]
*17 io_in[24]
*18 io_in[25]
*19 io_in[26]
*20 io_in[27]
*21 io_in[28]
*22 io_in[29]
*23 io_in[2]
*24 io_in[30]
*25 io_in[31]
*26 io_in[32]
*27 io_in[33]
*28 io_in[34]
*29 io_in[35]
*30 io_in[36]
*31 io_in[37]
*32 io_in[3]
*33 io_in[4]
*34 io_in[5]
*35 io_in[6]
*36 io_in[7]
*37 io_in[8]
*38 io_in[9]
*39 io_oeb[0]
*40 io_oeb[10]
*41 io_oeb[11]
*42 io_oeb[12]
*43 io_oeb[13]
*44 io_oeb[14]
*45 io_oeb[15]
*46 io_oeb[16]
*47 io_oeb[17]
*48 io_oeb[18]
*49 io_oeb[19]
*50 io_oeb[1]
*51 io_oeb[20]
*52 io_oeb[21]
*53 io_oeb[22]
*54 io_oeb[23]
*55 io_oeb[24]
*56 io_oeb[25]
*57 io_oeb[26]
*58 io_oeb[27]
*59 io_oeb[28]
*60 io_oeb[29]
*61 io_oeb[2]
*62 io_oeb[30]
*63 io_oeb[31]
*64 io_oeb[32]
*65 io_oeb[33]
*66 io_oeb[34]
*67 io_oeb[35]
*68 io_oeb[36]
*69 io_oeb[37]
*70 io_oeb[3]
*71 io_oeb[4]
*72 io_oeb[5]
*73 io_oeb[6]
*74 io_oeb[7]
*75 io_oeb[8]
*76 io_oeb[9]
*77 io_out[0]
*78 io_out[10]
*79 io_out[11]
*80 io_out[12]
*81 io_out[13]
*82 io_out[14]
*83 io_out[15]
*84 io_out[16]
*85 io_out[17]
*86 io_out[18]
*87 io_out[19]
*88 io_out[1]
*89 io_out[20]
*90 io_out[21]
*91 io_out[22]
*92 io_out[23]
*93 io_out[24]
*94 io_out[25]
*95 io_out[26]
*96 io_out[27]
*97 io_out[28]
*98 io_out[29]
*99 io_out[2]
*100 io_out[30]
*101 io_out[31]
*102 io_out[32]
*103 io_out[33]
*104 io_out[34]
*105 io_out[35]
*106 io_out[36]
*107 io_out[37]
*108 io_out[3]
*109 io_out[4]
*110 io_out[5]
*111 io_out[6]
*112 io_out[7]
*113 io_out[8]
*114 io_out[9]
*115 la_data_in[0]
*116 la_data_in[10]
*117 la_data_in[11]
*118 la_data_in[12]
*119 la_data_in[13]
*120 la_data_in[14]
*121 la_data_in[15]
*122 la_data_in[16]
*123 la_data_in[17]
*124 la_data_in[18]
*125 la_data_in[19]
*126 la_data_in[1]
*127 la_data_in[20]
*128 la_data_in[21]
*129 la_data_in[22]
*130 la_data_in[23]
*131 la_data_in[24]
*132 la_data_in[25]
*133 la_data_in[26]
*134 la_data_in[27]
*135 la_data_in[28]
*136 la_data_in[29]
*137 la_data_in[2]
*138 la_data_in[30]
*139 la_data_in[31]
*140 la_data_in[32]
*141 la_data_in[33]
*142 la_data_in[34]
*143 la_data_in[35]
*144 la_data_in[36]
*145 la_data_in[37]
*146 la_data_in[38]
*147 la_data_in[39]
*148 la_data_in[3]
*149 la_data_in[40]
*150 la_data_in[41]
*151 la_data_in[42]
*152 la_data_in[43]
*153 la_data_in[44]
*154 la_data_in[45]
*155 la_data_in[46]
*156 la_data_in[47]
*157 la_data_in[48]
*158 la_data_in[49]
*159 la_data_in[4]
*160 la_data_in[50]
*161 la_data_in[51]
*162 la_data_in[52]
*163 la_data_in[53]
*164 la_data_in[54]
*165 la_data_in[55]
*166 la_data_in[56]
*167 la_data_in[57]
*168 la_data_in[58]
*169 la_data_in[59]
*170 la_data_in[5]
*171 la_data_in[60]
*172 la_data_in[61]
*173 la_data_in[62]
*174 la_data_in[63]
*175 la_data_in[6]
*176 la_data_in[7]
*177 la_data_in[8]
*178 la_data_in[9]
*179 la_data_out[0]
*180 la_data_out[10]
*181 la_data_out[11]
*182 la_data_out[12]
*183 la_data_out[13]
*184 la_data_out[14]
*185 la_data_out[15]
*186 la_data_out[16]
*187 la_data_out[17]
*188 la_data_out[18]
*189 la_data_out[19]
*190 la_data_out[1]
*191 la_data_out[20]
*192 la_data_out[21]
*193 la_data_out[22]
*194 la_data_out[23]
*195 la_data_out[24]
*196 la_data_out[25]
*197 la_data_out[26]
*198 la_data_out[27]
*199 la_data_out[28]
*200 la_data_out[29]
*201 la_data_out[2]
*202 la_data_out[30]
*203 la_data_out[31]
*204 la_data_out[32]
*205 la_data_out[33]
*206 la_data_out[34]
*207 la_data_out[35]
*208 la_data_out[36]
*209 la_data_out[37]
*210 la_data_out[38]
*211 la_data_out[39]
*212 la_data_out[3]
*213 la_data_out[40]
*214 la_data_out[41]
*215 la_data_out[42]
*216 la_data_out[43]
*217 la_data_out[44]
*218 la_data_out[45]
*219 la_data_out[46]
*220 la_data_out[47]
*221 la_data_out[48]
*222 la_data_out[49]
*223 la_data_out[4]
*224 la_data_out[50]
*225 la_data_out[51]
*226 la_data_out[52]
*227 la_data_out[53]
*228 la_data_out[54]
*229 la_data_out[55]
*230 la_data_out[56]
*231 la_data_out[57]
*232 la_data_out[58]
*233 la_data_out[59]
*234 la_data_out[5]
*235 la_data_out[60]
*236 la_data_out[61]
*237 la_data_out[62]
*238 la_data_out[63]
*239 la_data_out[6]
*240 la_data_out[7]
*241 la_data_out[8]
*242 la_data_out[9]
*243 la_oenb[0]
*244 la_oenb[10]
*245 la_oenb[11]
*246 la_oenb[12]
*247 la_oenb[13]
*248 la_oenb[14]
*249 la_oenb[15]
*250 la_oenb[16]
*251 la_oenb[17]
*252 la_oenb[18]
*253 la_oenb[19]
*254 la_oenb[1]
*255 la_oenb[20]
*256 la_oenb[21]
*257 la_oenb[22]
*258 la_oenb[23]
*259 la_oenb[24]
*260 la_oenb[25]
*261 la_oenb[26]
*262 la_oenb[27]
*263 la_oenb[28]
*264 la_oenb[29]
*265 la_oenb[2]
*266 la_oenb[30]
*267 la_oenb[31]
*268 la_oenb[32]
*269 la_oenb[33]
*270 la_oenb[34]
*271 la_oenb[35]
*272 la_oenb[36]
*273 la_oenb[37]
*274 la_oenb[38]
*275 la_oenb[39]
*276 la_oenb[3]
*277 la_oenb[40]
*278 la_oenb[41]
*279 la_oenb[42]
*280 la_oenb[43]
*281 la_oenb[44]
*282 la_oenb[45]
*283 la_oenb[46]
*284 la_oenb[47]
*285 la_oenb[48]
*286 la_oenb[49]
*287 la_oenb[4]
*288 la_oenb[50]
*289 la_oenb[51]
*290 la_oenb[52]
*291 la_oenb[53]
*292 la_oenb[54]
*293 la_oenb[55]
*294 la_oenb[56]
*295 la_oenb[57]
*296 la_oenb[58]
*297 la_oenb[59]
*298 la_oenb[5]
*299 la_oenb[60]
*300 la_oenb[61]
*301 la_oenb[62]
*302 la_oenb[63]
*303 la_oenb[6]
*304 la_oenb[7]
*305 la_oenb[8]
*306 la_oenb[9]
*307 user_clock2
*308 user_irq[0]
*309 user_irq[1]
*310 user_irq[2]
*313 wb_clk_i
*314 wb_rst_i
*315 wbs_ack_o
*316 wbs_adr_i[0]
*317 wbs_adr_i[10]
*318 wbs_adr_i[11]
*319 wbs_adr_i[12]
*320 wbs_adr_i[13]
*321 wbs_adr_i[14]
*322 wbs_adr_i[15]
*323 wbs_adr_i[16]
*324 wbs_adr_i[17]
*325 wbs_adr_i[18]
*326 wbs_adr_i[19]
*327 wbs_adr_i[1]
*328 wbs_adr_i[20]
*329 wbs_adr_i[21]
*330 wbs_adr_i[22]
*331 wbs_adr_i[23]
*332 wbs_adr_i[24]
*333 wbs_adr_i[25]
*334 wbs_adr_i[26]
*335 wbs_adr_i[27]
*336 wbs_adr_i[28]
*337 wbs_adr_i[29]
*338 wbs_adr_i[2]
*339 wbs_adr_i[30]
*340 wbs_adr_i[31]
*341 wbs_adr_i[3]
*342 wbs_adr_i[4]
*343 wbs_adr_i[5]
*344 wbs_adr_i[6]
*345 wbs_adr_i[7]
*346 wbs_adr_i[8]
*347 wbs_adr_i[9]
*348 wbs_cyc_i
*349 wbs_dat_i[0]
*350 wbs_dat_i[10]
*351 wbs_dat_i[11]
*352 wbs_dat_i[12]
*353 wbs_dat_i[13]
*354 wbs_dat_i[14]
*355 wbs_dat_i[15]
*356 wbs_dat_i[16]
*357 wbs_dat_i[17]
*358 wbs_dat_i[18]
*359 wbs_dat_i[19]
*360 wbs_dat_i[1]
*361 wbs_dat_i[20]
*362 wbs_dat_i[21]
*363 wbs_dat_i[22]
*364 wbs_dat_i[23]
*365 wbs_dat_i[24]
*366 wbs_dat_i[25]
*367 wbs_dat_i[26]
*368 wbs_dat_i[27]
*369 wbs_dat_i[28]
*370 wbs_dat_i[29]
*371 wbs_dat_i[2]
*372 wbs_dat_i[30]
*373 wbs_dat_i[31]
*374 wbs_dat_i[3]
*375 wbs_dat_i[4]
*376 wbs_dat_i[5]
*377 wbs_dat_i[6]
*378 wbs_dat_i[7]
*379 wbs_dat_i[8]
*380 wbs_dat_i[9]
*381 wbs_dat_o[0]
*382 wbs_dat_o[10]
*383 wbs_dat_o[11]
*384 wbs_dat_o[12]
*385 wbs_dat_o[13]
*386 wbs_dat_o[14]
*387 wbs_dat_o[15]
*388 wbs_dat_o[16]
*389 wbs_dat_o[17]
*390 wbs_dat_o[18]
*391 wbs_dat_o[19]
*392 wbs_dat_o[1]
*393 wbs_dat_o[20]
*394 wbs_dat_o[21]
*395 wbs_dat_o[22]
*396 wbs_dat_o[23]
*397 wbs_dat_o[24]
*398 wbs_dat_o[25]
*399 wbs_dat_o[26]
*400 wbs_dat_o[27]
*401 wbs_dat_o[28]
*402 wbs_dat_o[29]
*403 wbs_dat_o[2]
*404 wbs_dat_o[30]
*405 wbs_dat_o[31]
*406 wbs_dat_o[3]
*407 wbs_dat_o[4]
*408 wbs_dat_o[5]
*409 wbs_dat_o[6]
*410 wbs_dat_o[7]
*411 wbs_dat_o[8]
*412 wbs_dat_o[9]
*413 wbs_sel_i[0]
*414 wbs_sel_i[1]
*415 wbs_sel_i[2]
*416 wbs_sel_i[3]
*417 wbs_stb_i
*418 wbs_we_i
*419 mprj

*PORTS
io_in[0] I
io_in[10] I
io_in[11] I
io_in[12] I
io_in[13] I
io_in[14] I
io_in[15] I
io_in[16] I
io_in[17] I
io_in[18] I
io_in[19] I
io_in[1] I
io_in[20] I
io_in[21] I
io_in[22] I
io_in[23] I
io_in[24] I
io_in[25] I
io_in[26] I
io_in[27] I
io_in[28] I
io_in[29] I
io_in[2] I
io_in[30] I
io_in[31] I
io_in[32] I
io_in[33] I
io_in[34] I
io_in[35] I
io_in[36] I
io_in[37] I
io_in[3] I
io_in[4] I
io_in[5] I
io_in[6] I
io_in[7] I
io_in[8] I
io_in[9] I
io_oeb[0] O
io_oeb[10] O
io_oeb[11] O
io_oeb[12] O
io_oeb[13] O
io_oeb[14] O
io_oeb[15] O
io_oeb[16] O
io_oeb[17] O
io_oeb[18] O
io_oeb[19] O
io_oeb[1] O
io_oeb[20] O
io_oeb[21] O
io_oeb[22] O
io_oeb[23] O
io_oeb[24] O
io_oeb[25] O
io_oeb[26] O
io_oeb[27] O
io_oeb[28] O
io_oeb[29] O
io_oeb[2] O
io_oeb[30] O
io_oeb[31] O
io_oeb[32] O
io_oeb[33] O
io_oeb[34] O
io_oeb[35] O
io_oeb[36] O
io_oeb[37] O
io_oeb[3] O
io_oeb[4] O
io_oeb[5] O
io_oeb[6] O
io_oeb[7] O
io_oeb[8] O
io_oeb[9] O
io_out[0] O
io_out[10] O
io_out[11] O
io_out[12] O
io_out[13] O
io_out[14] O
io_out[15] O
io_out[16] O
io_out[17] O
io_out[18] O
io_out[19] O
io_out[1] O
io_out[20] O
io_out[21] O
io_out[22] O
io_out[23] O
io_out[24] O
io_out[25] O
io_out[26] O
io_out[27] O
io_out[28] O
io_out[29] O
io_out[2] O
io_out[30] O
io_out[31] O
io_out[32] O
io_out[33] O
io_out[34] O
io_out[35] O
io_out[36] O
io_out[37] O
io_out[3] O
io_out[4] O
io_out[5] O
io_out[6] O
io_out[7] O
io_out[8] O
io_out[9] O
la_data_in[0] I
la_data_in[10] I
la_data_in[11] I
la_data_in[12] I
la_data_in[13] I
la_data_in[14] I
la_data_in[15] I
la_data_in[16] I
la_data_in[17] I
la_data_in[18] I
la_data_in[19] I
la_data_in[1] I
la_data_in[20] I
la_data_in[21] I
la_data_in[22] I
la_data_in[23] I
la_data_in[24] I
la_data_in[25] I
la_data_in[26] I
la_data_in[27] I
la_data_in[28] I
la_data_in[29] I
la_data_in[2] I
la_data_in[30] I
la_data_in[31] I
la_data_in[32] I
la_data_in[33] I
la_data_in[34] I
la_data_in[35] I
la_data_in[36] I
la_data_in[37] I
la_data_in[38] I
la_data_in[39] I
la_data_in[3] I
la_data_in[40] I
la_data_in[41] I
la_data_in[42] I
la_data_in[43] I
la_data_in[44] I
la_data_in[45] I
la_data_in[46] I
la_data_in[47] I
la_data_in[48] I
la_data_in[49] I
la_data_in[4] I
la_data_in[50] I
la_data_in[51] I
la_data_in[52] I
la_data_in[53] I
la_data_in[54] I
la_data_in[55] I
la_data_in[56] I
la_data_in[57] I
la_data_in[58] I
la_data_in[59] I
la_data_in[5] I
la_data_in[60] I
la_data_in[61] I
la_data_in[62] I
la_data_in[63] I
la_data_in[6] I
la_data_in[7] I
la_data_in[8] I
la_data_in[9] I
la_data_out[0] O
la_data_out[10] O
la_data_out[11] O
la_data_out[12] O
la_data_out[13] O
la_data_out[14] O
la_data_out[15] O
la_data_out[16] O
la_data_out[17] O
la_data_out[18] O
la_data_out[19] O
la_data_out[1] O
la_data_out[20] O
la_data_out[21] O
la_data_out[22] O
la_data_out[23] O
la_data_out[24] O
la_data_out[25] O
la_data_out[26] O
la_data_out[27] O
la_data_out[28] O
la_data_out[29] O
la_data_out[2] O
la_data_out[30] O
la_data_out[31] O
la_data_out[32] O
la_data_out[33] O
la_data_out[34] O
la_data_out[35] O
la_data_out[36] O
la_data_out[37] O
la_data_out[38] O
la_data_out[39] O
la_data_out[3] O
la_data_out[40] O
la_data_out[41] O
la_data_out[42] O
la_data_out[43] O
la_data_out[44] O
la_data_out[45] O
la_data_out[46] O
la_data_out[47] O
la_data_out[48] O
la_data_out[49] O
la_data_out[4] O
la_data_out[50] O
la_data_out[51] O
la_data_out[52] O
la_data_out[53] O
la_data_out[54] O
la_data_out[55] O
la_data_out[56] O
la_data_out[57] O
la_data_out[58] O
la_data_out[59] O
la_data_out[5] O
la_data_out[60] O
la_data_out[61] O
la_data_out[62] O
la_data_out[63] O
la_data_out[6] O
la_data_out[7] O
la_data_out[8] O
la_data_out[9] O
la_oenb[0] I
la_oenb[10] I
la_oenb[11] I
la_oenb[12] I
la_oenb[13] I
la_oenb[14] I
la_oenb[15] I
la_oenb[16] I
la_oenb[17] I
la_oenb[18] I
la_oenb[19] I
la_oenb[1] I
la_oenb[20] I
la_oenb[21] I
la_oenb[22] I
la_oenb[23] I
la_oenb[24] I
la_oenb[25] I
la_oenb[26] I
la_oenb[27] I
la_oenb[28] I
la_oenb[29] I
la_oenb[2] I
la_oenb[30] I
la_oenb[31] I
la_oenb[32] I
la_oenb[33] I
la_oenb[34] I
la_oenb[35] I
la_oenb[36] I
la_oenb[37] I
la_oenb[38] I
la_oenb[39] I
la_oenb[3] I
la_oenb[40] I
la_oenb[41] I
la_oenb[42] I
la_oenb[43] I
la_oenb[44] I
la_oenb[45] I
la_oenb[46] I
la_oenb[47] I
la_oenb[48] I
la_oenb[49] I
la_oenb[4] I
la_oenb[50] I
la_oenb[51] I
la_oenb[52] I
la_oenb[53] I
la_oenb[54] I
la_oenb[55] I
la_oenb[56] I
la_oenb[57] I
la_oenb[58] I
la_oenb[59] I
la_oenb[5] I
la_oenb[60] I
la_oenb[61] I
la_oenb[62] I
la_oenb[63] I
la_oenb[6] I
la_oenb[7] I
la_oenb[8] I
la_oenb[9] I
user_clock2 I
user_irq[0] O
user_irq[1] O
user_irq[2] O
wb_clk_i I
wb_rst_i I
wbs_ack_o O
wbs_adr_i[0] I
wbs_adr_i[10] I
wbs_adr_i[11] I
wbs_adr_i[12] I
wbs_adr_i[13] I
wbs_adr_i[14] I
wbs_adr_i[15] I
wbs_adr_i[16] I
wbs_adr_i[17] I
wbs_adr_i[18] I
wbs_adr_i[19] I
wbs_adr_i[1] I
wbs_adr_i[20] I
wbs_adr_i[21] I
wbs_adr_i[22] I
wbs_adr_i[23] I
wbs_adr_i[24] I
wbs_adr_i[25] I
wbs_adr_i[26] I
wbs_adr_i[27] I
wbs_adr_i[28] I
wbs_adr_i[29] I
wbs_adr_i[2] I
wbs_adr_i[30] I
wbs_adr_i[31] I
wbs_adr_i[3] I
wbs_adr_i[4] I
wbs_adr_i[5] I
wbs_adr_i[6] I
wbs_adr_i[7] I
wbs_adr_i[8] I
wbs_adr_i[9] I
wbs_cyc_i I
wbs_dat_i[0] I
wbs_dat_i[10] I
wbs_dat_i[11] I
wbs_dat_i[12] I
wbs_dat_i[13] I
wbs_dat_i[14] I
wbs_dat_i[15] I
wbs_dat_i[16] I
wbs_dat_i[17] I
wbs_dat_i[18] I
wbs_dat_i[19] I
wbs_dat_i[1] I
wbs_dat_i[20] I
wbs_dat_i[21] I
wbs_dat_i[22] I
wbs_dat_i[23] I
wbs_dat_i[24] I
wbs_dat_i[25] I
wbs_dat_i[26] I
wbs_dat_i[27] I
wbs_dat_i[28] I
wbs_dat_i[29] I
wbs_dat_i[2] I
wbs_dat_i[30] I
wbs_dat_i[31] I
wbs_dat_i[3] I
wbs_dat_i[4] I
wbs_dat_i[5] I
wbs_dat_i[6] I
wbs_dat_i[7] I
wbs_dat_i[8] I
wbs_dat_i[9] I
wbs_dat_o[0] O
wbs_dat_o[10] O
wbs_dat_o[11] O
wbs_dat_o[12] O
wbs_dat_o[13] O
wbs_dat_o[14] O
wbs_dat_o[15] O
wbs_dat_o[16] O
wbs_dat_o[17] O
wbs_dat_o[18] O
wbs_dat_o[19] O
wbs_dat_o[1] O
wbs_dat_o[20] O
wbs_dat_o[21] O
wbs_dat_o[22] O
wbs_dat_o[23] O
wbs_dat_o[24] O
wbs_dat_o[25] O
wbs_dat_o[26] O
wbs_dat_o[27] O
wbs_dat_o[28] O
wbs_dat_o[29] O
wbs_dat_o[2] O
wbs_dat_o[30] O
wbs_dat_o[31] O
wbs_dat_o[3] O
wbs_dat_o[4] O
wbs_dat_o[5] O
wbs_dat_o[6] O
wbs_dat_o[7] O
wbs_dat_o[8] O
wbs_dat_o[9] O
wbs_sel_i[0] I
wbs_sel_i[1] I
wbs_sel_i[2] I
wbs_sel_i[3] I
wbs_stb_i I
wbs_we_i I

*D_NET *115 0.261532
*CONN
*P la_data_in[0] I
*I *419:la_data_in[0] I *D user_proj_example
*CAP
1 la_data_in[0] 0.0143796
2 *419:la_data_in[0] 0.00118313
3 *115:13 0.0150095
4 *115:11 0.0138264
5 *115:9 0.0138879
6 *115:7 0.0138879
7 *115:5 0.0143796
8 *419:la_data_in[0] *419:la_oenb[0] 0.0021365
9 *419:la_data_in[0] *179:13 0.000167844
10 *419:la_data_in[0] *190:11 0
11 *419:la_data_in[0] *342:23 0.000478326
12 *419:la_data_in[0] *400:15 1.35309e-05
13 *419:la_data_in[0] *405:15 9.47204e-05
14 *419:la_data_in[0] *408:17 1.30476e-05
15 *419:la_data_in[0] *410:17 0.000146659
16 *115:9 *119:9 0.119959
17 *115:9 *154:9 0
18 *115:9 *352:9 0.0449273
19 *115:13 *419:wbs_adr_i[28] 0.00444649
20 *115:13 *335:29 0.00259371
*RES
1 la_data_in[0] *115:5 103.844 
2 *115:5 *115:7 4.5 
3 *115:7 *115:9 322.296 
4 *115:9 *115:11 4.5 
5 *115:11 *115:13 93.7597 
6 *115:13 *419:la_data_in[0] 26.9943 
*END

*D_NET *116 0.394563
*CONN
*P la_data_in[10] I
*I *419:la_data_in[10] I *D user_proj_example
*CAP
1 la_data_in[10] 0.0148418
2 *419:la_data_in[10] 0.000436707
3 *116:13 0.00512252
4 *116:11 0.00468581
5 *116:9 0.00604933
6 *116:7 0.00604933
7 *116:5 0.0148418
8 *419:la_data_in[10] wbs_dat_o[3] 1.29799e-05
9 *419:la_data_in[10] *419:la_data_in[9] 3.34803e-06
10 *419:la_data_in[10] *419:la_oenb[11] 0
11 *419:la_data_in[10] *419:la_oenb[9] 7.5732e-05
12 *419:la_data_in[10] *180:9 7.5732e-05
13 *419:la_data_in[10] *378:9 0.0010971
14 *419:la_data_in[10] *394:23 0.0011158
15 *116:9 *120:9 0.161692
16 *116:9 *137:9 0.128913
17 *116:9 *230:17 0
18 *116:13 *117:13 0
19 *116:13 *118:13 0.0407325
20 *116:13 *181:11 0.00124815
21 *116:13 *182:15 0.00756913
*RES
1 la_data_in[10] *116:5 109.876 
2 *116:5 *116:7 4.5 
3 *116:7 *116:9 408.824 
4 *116:9 *116:11 4.5 
5 *116:11 *116:13 107.64 
6 *116:13 *419:la_data_in[10] 14.564 
*END

*D_NET *117 0.297954
*CONN
*P la_data_in[11] I
*I *419:la_data_in[11] I *D user_proj_example
*CAP
1 la_data_in[11] 0.0142498
2 *419:la_data_in[11] 1.01398e-05
3 *117:13 0.00540849
4 *117:11 0.00539835
5 *117:9 0.0210783
6 *117:7 0.0210783
7 *117:5 0.0142498
8 *419:la_data_in[11] *419:la_oenb[10] 7.5732e-05
9 *419:la_data_in[11] *181:9 7.5732e-05
10 *117:9 *121:9 0.164357
11 *117:9 *350:21 0.0021603
12 *117:9 *380:29 0.0241687
13 *117:13 *178:13 0
14 *117:13 *181:11 0.0152591
15 *117:13 *244:23 0.0103844
16 *117:13 *245:27 0
17 *116:13 *117:13 0
*RES
1 la_data_in[11] *117:5 106.34 
2 *117:5 *117:7 4.5 
3 *117:7 *117:9 420.888 
4 *117:9 *117:11 4.5 
5 *117:11 *117:13 101.816 
6 *117:13 *419:la_data_in[11] 9.468 
*END

*D_NET *118 0.369959
*CONN
*P la_data_in[12] I
*I *419:la_data_in[12] I *D user_proj_example
*CAP
1 la_data_in[12] 0.0152581
2 *419:la_data_in[12] 0.000103042
3 *118:13 0.00386873
4 *118:11 0.00376569
5 *118:9 0.0141273
6 *118:7 0.0141273
7 *118:5 0.0152581
8 *419:la_data_in[12] *419:la_oenb[11] 9.6376e-05
9 *419:la_data_in[12] *182:13 0.000174095
10 *419:la_data_in[12] *408:35 0.000195624
11 *118:9 *122:9 0.169465
12 *118:9 *172:9 0
13 *118:9 *363:9 0.0797076
14 *118:13 *419:la_oenb[13] 8.12513e-07
15 *118:13 *119:13 0.00230164
16 *118:13 *246:21 0.0107772
17 *116:13 *118:13 0.0407325
*RES
1 la_data_in[12] *118:5 112.996 
2 *118:5 *118:7 4.5 
3 *118:7 *118:9 429.832 
4 *118:9 *118:11 4.5 
5 *118:11 *118:13 108.68 
6 *118:13 *419:la_data_in[12] 10.196 
*END

*D_NET *119 0.372204
*CONN
*P la_data_in[13] I
*I *419:la_data_in[13] I *D user_proj_example
*CAP
1 la_data_in[13] 0.0137834
2 *419:la_data_in[13] 1.01398e-05
3 *119:13 0.00595978
4 *119:11 0.00594964
5 *119:9 0.0095144
6 *119:7 0.0095144
7 *119:5 0.0137834
8 *419:la_data_in[13] *419:la_oenb[12] 7.5732e-05
9 *419:la_data_in[13] *183:13 7.5732e-05
10 *119:9 *123:9 0.172773
11 *119:9 *154:9 0
12 *119:13 *419:la_oenb[13] 0.00336692
13 *119:13 *120:13 0
14 *119:13 *183:15 0.00154063
15 *119:13 *184:15 0.00246138
16 *119:13 *246:21 0.0107689
17 *119:13 *248:21 0.000366296
18 *115:9 *119:9 0.119959
19 *118:13 *119:13 0.00230164
*RES
1 la_data_in[13] *119:5 103.636 
2 *119:5 *119:7 4.5 
3 *119:7 *119:9 439.608 
4 *119:9 *119:11 4.5 
5 *119:11 *119:13 99.112 
6 *119:13 *419:la_data_in[13] 9.468 
*END

*D_NET *120 0.414737
*CONN
*P la_data_in[14] I
*I *419:la_data_in[14] I *D user_proj_example
*CAP
1 la_data_in[14] 0.0146551
2 *419:la_data_in[14] 0.000151363
3 *120:13 0.00836001
4 *120:11 0.00820865
5 *120:9 0.00451493
6 *120:7 0.00451493
7 *120:5 0.0146551
8 *419:la_data_in[14] *419:la_data_in[15] 3.82959e-06
9 *419:la_data_in[14] *419:la_oenb[13] 8.89884e-05
10 *419:la_data_in[14] *419:la_oenb[14] 5.52969e-05
11 *419:la_data_in[14] *183:13 1.08521e-05
12 *419:la_data_in[14] *184:13 7.87472e-05
13 *419:la_data_in[14] *408:35 0.000125283
14 *120:9 *230:17 0
15 *120:9 *260:9 0.172882
16 *120:13 *419:la_oenb[14] 0.0124751
17 *120:13 *122:13 0
18 *120:13 *183:15 7.78539e-06
19 *120:13 *185:11 0.00214193
20 *120:13 *248:21 0.0101147
21 *116:9 *120:9 0.161692
22 *119:13 *120:13 0
*RES
1 la_data_in[14] *120:5 109.668 
2 *120:5 *120:7 4.5 
3 *120:7 *120:9 448.552 
4 *120:9 *120:11 4.5 
5 *120:11 *120:13 105.768 
6 *120:13 *419:la_data_in[14] 10.716 
*END

*D_NET *121 0.419987
*CONN
*P la_data_in[15] I
*I *419:la_data_in[15] I *D user_proj_example
*CAP
1 la_data_in[15] 0.0140692
2 *419:la_data_in[15] 0.000298194
3 *121:13 0.00457967
4 *121:11 0.00428147
5 *121:9 0.00407737
6 *121:7 0.00407737
7 *121:5 0.0140692
8 *419:la_data_in[15] *419:la_oenb[14] 0.000107053
9 *419:la_data_in[15] *185:9 7.5732e-05
10 *419:la_data_in[15] *187:13 0.000364104
11 *419:la_data_in[15] *342:23 1.36691e-05
12 *419:la_data_in[15] *408:35 0.000395782
13 *121:9 *128:9 0.179352
14 *121:9 *352:9 0
15 *121:13 *122:13 0
16 *121:13 *123:13 0.0156803
17 *121:13 *187:15 1.68918e-06
18 *121:13 *251:21 0.0141831
19 *419:la_data_in[14] *419:la_data_in[15] 3.82959e-06
20 *117:9 *121:9 0.164357
*RES
1 la_data_in[15] *121:5 106.132 
2 *121:5 *121:7 4.5 
3 *121:7 *121:9 455.416 
4 *121:9 *121:11 4.5 
5 *121:11 *121:13 102.024 
6 *121:13 *419:la_data_in[15] 13.004 
*END

*D_NET *122 0.425837
*CONN
*P la_data_in[16] I
*I *419:la_data_in[16] I *D user_proj_example
*CAP
1 la_data_in[16] 0.0150471
2 *419:la_data_in[16] 1.01398e-05
3 *122:13 0.00745382
4 *122:11 0.00744368
5 *122:9 0.00424808
6 *122:7 0.00424808
7 *122:5 0.0150471
8 *419:la_data_in[16] *419:la_oenb[15] 7.5732e-05
9 *419:la_data_in[16] *186:17 7.5732e-05
10 *122:9 *131:9 0.181893
11 *122:9 *172:9 0
12 *122:13 *123:13 0.00018315
13 *122:13 *185:11 0.00192855
14 *122:13 *186:19 0.00120586
15 *122:13 *187:15 0.00717447
16 *122:13 *249:23 0.00856607
17 *122:13 *342:23 0.00177214
18 *118:9 *122:9 0.169465
19 *120:13 *122:13 0
20 *121:13 *122:13 0
*RES
1 la_data_in[16] *122:5 112.788 
2 *122:5 *122:7 4.5 
3 *122:7 *122:9 467.688 
4 *122:9 *122:11 4.5 
5 *122:11 *122:13 108.264 
6 *122:13 *419:la_data_in[16] 9.468 
*END

*D_NET *123 0.45036
*CONN
*P la_data_in[17] I
*I *419:la_data_in[17] I *D user_proj_example
*CAP
1 la_data_in[17] 0.0136204
2 *419:la_data_in[17] 1.75655e-05
3 *123:13 0.00273906
4 *123:11 0.00272149
5 *123:9 0.00421559
6 *123:7 0.00421559
7 *123:5 0.0136204
8 *419:la_data_in[17] *419:la_oenb[16] 6.75145e-05
9 *419:la_data_in[17] *187:13 7.5732e-05
10 *123:9 *129:9 0.187201
11 *123:9 *154:9 0
12 *123:13 *186:17 0.0016748
13 *123:13 *186:19 0.0315542
14 *119:9 *123:9 0.172773
15 *121:13 *123:13 0.0156803
16 *122:13 *123:13 0.00018315
*RES
1 la_data_in[17] *123:5 103.428 
2 *123:5 *123:7 4.5 
3 *123:7 *123:9 477.048 
4 *123:9 *123:11 4.5 
5 *123:11 *123:13 98.904 
6 *123:13 *419:la_data_in[17] 9.468 
*END

*D_NET *124 0.444789
*CONN
*P la_data_in[18] I
*I *419:la_data_in[18] I *D user_proj_example
*CAP
1 la_data_in[18] 0.0112542
2 *419:la_data_in[18] 1.01398e-05
3 *124:13 0.00446182
4 *124:11 0.00445168
5 *124:9 0.00419079
6 *124:7 0.00419079
7 *124:5 0.0112542
8 *419:la_data_in[18] *419:la_oenb[17] 7.5732e-05
9 *419:la_data_in[18] *188:13 7.5732e-05
10 *124:9 *130:9 0.19005
11 *124:9 *143:17 0.0191456
12 *124:9 *183:19 0.172733
13 *124:9 *194:15 0.0032683
14 *124:9 *347:29 0
15 *124:13 *125:13 0
16 *124:13 *247:21 0.00360053
17 *124:13 *251:21 0.0130512
18 *124:13 *253:33 0.00297545
*RES
1 la_data_in[18] *124:5 87.412 
2 *124:5 *124:7 4.5 
3 *124:7 *124:9 486.408 
4 *124:9 *124:11 4.5 
5 *124:11 *124:13 82.888 
6 *124:13 *419:la_data_in[18] 9.468 
*END

*D_NET *125 0.477486
*CONN
*P la_data_in[19] I
*I *419:la_data_in[19] I *D user_proj_example
*CAP
1 la_data_in[19] 0.0116636
2 *419:la_data_in[19] 9.3437e-05
3 *125:13 0.00268076
4 *125:11 0.00258732
5 *125:9 0.00466125
6 *125:7 0.00466125
7 *125:5 0.0116636
8 *419:la_data_in[19] *419:la_oenb[18] 0.00010943
9 *419:la_data_in[19] *188:13 3.51644e-05
10 *419:la_data_in[19] *189:11 7.5732e-05
11 *419:la_data_in[19] *375:15 2.76367e-05
12 *125:9 *127:9 0.19505
13 *125:9 *185:15 0.180766
14 *125:9 *207:15 0.0198653
15 *125:13 *188:15 0.0298634
16 *125:13 *189:13 0.0135207
17 *125:13 *247:21 0.000160873
18 *125:13 *251:21 0
19 *124:13 *125:13 0
*RES
1 la_data_in[19] *125:5 90.532 
2 *125:5 *125:7 4.5 
3 *125:7 *125:9 495.352 
4 *125:9 *125:11 4.5 
5 *125:11 *125:13 86.008 
6 *125:13 *419:la_data_in[19] 10.092 
*END

*D_NET *126 0.291391
*CONN
*P la_data_in[1] I
*I *419:la_data_in[1] I *D user_proj_example
*CAP
1 la_data_in[1] 0.0118288
2 *419:la_data_in[1] 0.000413048
3 *126:13 0.00189811
4 *126:11 0.00148506
5 *126:9 0.00618515
6 *126:7 0.00618515
7 *126:5 0.0118288
8 *419:la_data_in[1] *419:la_data_in[2] 1.72616e-05
9 *419:la_data_in[1] *419:la_oenb[0] 7.5732e-05
10 *419:la_data_in[1] *179:13 3.74186e-05
11 *419:la_data_in[1] *190:9 7.5732e-05
12 *419:la_data_in[1] *378:9 0.000524192
13 *419:la_data_in[1] *394:23 0.000542895
14 *419:la_data_in[1] *405:15 0
15 *126:9 *143:17 0.00815154
16 *126:9 *183:19 0.12286
17 *126:9 *194:15 0.0273111
18 *126:9 *226:21 0.000492984
19 *126:9 *253:17 0.0235603
20 *126:9 *334:25 0.00430295
21 *126:13 *137:13 0.0002049
22 *126:13 *179:15 0.0310958
23 *126:13 *201:13 0.0323144
24 *126:13 *408:17 0
*RES
1 la_data_in[1] *126:5 87.828 
2 *126:5 *126:7 4.5 
3 *126:7 *126:9 326.04 
4 *126:9 *126:11 4.5 
5 *126:11 *126:13 85.592 
6 *126:13 *419:la_data_in[1] 13.108 
*END

*D_NET *127 0.492752
*CONN
*P la_data_in[20] I
*I *419:la_data_in[20] I *D user_proj_example
*CAP
1 la_data_in[20] 0.0115986
2 *419:la_data_in[20] 0.000207136
3 *127:13 0.00273474
4 *127:11 0.0025276
5 *127:9 0.00341453
6 *127:7 0.00341453
7 *127:5 0.0115986
8 *419:la_data_in[20] *419:la_oenb[19] 0.000178399
9 *419:la_data_in[20] *191:9 7.5732e-05
10 *419:la_data_in[20] *368:37 0.000450565
11 *419:la_data_in[20] *408:35 9.59862e-05
12 *127:9 *194:15 0
13 *127:9 *197:21 0.195994
14 *127:9 *207:15 0.0197678
15 *127:9 *227:17 0.000457721
16 *127:9 *334:25 0
17 *127:13 *128:13 0.000902925
18 *127:13 *192:11 0.0113763
19 *127:13 *193:13 1.73362e-05
20 *127:13 *256:29 0.0328896
21 *125:9 *127:9 0.19505
*RES
1 la_data_in[20] *127:5 90.324 
2 *127:5 *127:7 4.5 
3 *127:7 *127:9 503.048 
4 *127:9 *127:11 4.5 
5 *127:11 *127:13 86.008 
6 *127:13 *419:la_data_in[20] 11.964 
*END

*D_NET *128 0.454006
*CONN
*P la_data_in[21] I
*I *419:la_data_in[21] I *D user_proj_example
*CAP
1 la_data_in[21] 0.0137703
2 *419:la_data_in[21] 1.01398e-05
3 *128:13 0.00642247
4 *128:11 0.00641233
5 *128:9 0.0059243
6 *128:7 0.0059243
7 *128:5 0.0137703
8 *419:la_data_in[21] *419:la_oenb[20] 7.5732e-05
9 *419:la_data_in[21] *192:9 7.5732e-05
10 *128:9 *138:9 0.199127
11 *128:9 *352:9 0
12 *128:13 *129:13 0
13 *128:13 *192:11 0.0113859
14 *128:13 *252:21 0
15 *128:13 *255:23 0.0102697
16 *128:13 *256:29 0.000582426
17 *121:9 *128:9 0.179352
18 *127:13 *128:13 0.000902925
*RES
1 la_data_in[21] *128:5 105.924 
2 *128:5 *128:7 4.5 
3 *128:7 *128:9 514.488 
4 *128:9 *128:11 4.5 
5 *128:11 *128:13 101.4 
6 *128:13 *419:la_data_in[21] 9.468 
*END

*D_NET *129 0.484202
*CONN
*P la_data_in[22] I
*I *419:la_data_in[22] I *D user_proj_example
*CAP
1 la_data_in[22] 0.0133712
2 *419:la_data_in[22] 5.75499e-05
3 *129:13 0.004311
4 *129:11 0.00425345
5 *129:9 0.00494367
6 *129:7 0.00494367
7 *129:5 0.0133712
8 *419:la_data_in[22] *419:la_oenb[21] 7.5732e-05
9 *419:la_data_in[22] *193:11 7.5732e-05
10 *129:9 *132:9 0.206005
11 *129:9 *134:9 2.27998e-05
12 *129:13 *193:13 0.0365521
13 *129:13 *256:29 0.000101812
14 *129:13 *257:27 0.00891539
15 *123:9 *129:9 0.187201
16 *128:13 *129:13 0
*RES
1 la_data_in[22] *129:5 103.22 
2 *129:5 *129:7 4.5 
3 *129:7 *129:9 523.64 
4 *129:9 *129:11 4.5 
5 *129:11 *129:13 98.696 
6 *129:13 *419:la_data_in[22] 9.78 
*END

*D_NET *130 0.379259
*CONN
*P la_data_in[23] I
*I *419:la_data_in[23] I *D user_proj_example
*CAP
1 la_data_in[23] 0.0111171
2 *419:la_data_in[23] 1.01398e-05
3 *130:13 0.00303584
4 *130:11 0.0030257
5 *130:9 0.00809537
6 *130:7 0.00809537
7 *130:5 0.0111171
8 *419:la_data_in[23] *419:la_oenb[22] 7.5732e-05
9 *419:la_data_in[23] *194:9 7.5732e-05
10 *130:9 *194:15 0.00154274
11 *130:9 *203:21 0.0827332
12 *130:9 *209:17 0.0214627
13 *130:9 *262:29 0.012949
14 *130:9 *347:29 0
15 *130:13 *194:11 0.0129323
16 *130:13 *257:27 0.0129418
17 *124:9 *130:9 0.19005
*RES
1 la_data_in[23] *130:5 87.204 
2 *130:5 *130:7 4.5 
3 *130:7 *130:9 533.208 
4 *130:9 *130:11 4.5 
5 *130:11 *130:13 82.68 
6 *130:13 *419:la_data_in[23] 9.468 
*END

*D_NET *131 0.476804
*CONN
*P la_data_in[24] I
*I *419:la_data_in[24] I *D user_proj_example
*CAP
1 la_data_in[24] 0.0146553
2 *419:la_data_in[24] 0.000146238
3 *131:13 0.00861951
4 *131:11 0.00847327
5 *131:9 0.00653466
6 *131:7 0.00653466
7 *131:5 0.0146553
8 *419:la_data_in[24] *419:la_oenb[23] 0.000107053
9 *419:la_data_in[24] *195:15 0.000166486
10 *419:la_data_in[24] *368:37 0.000409143
11 *419:la_data_in[24] *408:35 0.000437743
12 *131:9 *135:9 0.214029
13 *131:13 *194:11 0
14 *131:13 *195:17 4.38728e-06
15 *131:13 *196:11 0.00751543
16 *131:13 *253:21 0
17 *131:13 *258:29 0.00884005
18 *131:13 *260:13 0.00131887
19 *131:13 *343:13 0.000733032
20 *131:13 *388:23 0.00173053
21 *122:9 *131:9 0.181893
*RES
1 la_data_in[24] *131:5 112.58 
2 *131:5 *131:7 4.5 
3 *131:7 *131:9 541.528 
4 *131:9 *131:11 4.5 
5 *131:11 *131:13 108.68 
6 *131:13 *419:la_data_in[24] 11.236 
*END

*D_NET *132 0.52307
*CONN
*P la_data_in[25] I
*I *419:la_data_in[25] I *D user_proj_example
*CAP
1 la_data_in[25] 0.0132583
2 *419:la_data_in[25] 0.000287928
3 *132:13 0.00315503
4 *132:11 0.00286711
5 *132:9 0.00361753
6 *132:7 0.00361753
7 *132:5 0.0132583
8 *419:la_data_in[25] *419:la_data_in[26] 7.1135e-06
9 *419:la_data_in[25] *419:la_oenb[24] 7.5732e-05
10 *419:la_data_in[25] *195:15 3.06379e-05
11 *419:la_data_in[25] *196:9 7.5732e-05
12 *419:la_data_in[25] *343:13 0.000645957
13 *419:la_data_in[25] *378:9 0.0009183
14 *419:la_data_in[25] *394:23 0.000937013
15 *132:9 *134:9 0.218576
16 *132:13 *134:13 0.0376292
17 *132:13 *198:15 1.5386e-05
18 *132:13 *260:13 0
19 *132:13 *261:13 0.0139144
20 *132:13 *396:27 0.00417761
21 *129:9 *132:9 0.206005
*RES
1 la_data_in[25] *132:5 103.012 
2 *132:5 *132:7 4.5 
3 *132:7 *132:9 549.64 
4 *132:9 *132:11 4.5 
5 *132:11 *132:13 100.776 
6 *132:13 *419:la_data_in[25] 14.148 
*END

*D_NET *133 0.539047
*CONN
*P la_data_in[26] I
*I *419:la_data_in[26] I *D user_proj_example
*CAP
1 la_data_in[26] 0.0141061
2 *419:la_data_in[26] 0.000262844
3 *133:13 0.00394698
4 *133:11 0.00368414
5 *133:9 0.00185028
6 *133:7 0.00185028
7 *133:5 0.0141061
8 *419:la_data_in[26] *419:la_oenb[25] 7.5732e-05
9 *419:la_data_in[26] *197:15 0.000233382
10 *419:la_data_in[26] *343:13 2.13226e-05
11 *419:la_data_in[26] *377:19 0.000161468
12 *419:la_data_in[26] *408:35 0.000411355
13 *133:9 *260:9 0.221365
14 *133:9 *261:9 0.222773
15 *133:13 *135:13 0.00159139
16 *133:13 *260:13 0
17 *133:13 *261:13 0.0398612
18 *133:13 *262:35 0.0125782
19 *133:13 *376:15 5.96223e-05
20 *133:13 *396:27 0.000101919
21 *419:la_data_in[25] *419:la_data_in[26] 7.1135e-06
*RES
1 la_data_in[26] *133:5 109.252 
2 *133:5 *133:7 4.5 
3 *133:7 *133:9 559.624 
4 *133:9 *133:11 4.5 
5 *133:11 *133:13 105.768 
6 *133:13 *419:la_data_in[26] 12.38 
*END

*D_NET *134 0.535304
*CONN
*P la_data_in[27] I
*I *419:la_data_in[27] I *D user_proj_example
*CAP
1 la_data_in[27] 0.0131871