*SPEF "ieee 1481-1999"
*DESIGN "user_proj_example"
*DATE "11:11:11 Fri 11 11, 1111"
*VENDOR "OpenRCX"
*PROGRAM "Parallel Extraction"
*VERSION "1.0"
*DESIGN_FLOW "NAME_SCOPE LOCAL" "PIN_CAP NONE"
*DIVIDER /
*DELIMITER :
*BUS_DELIMITER []
*T_UNIT 1 NS
*C_UNIT 1 PF
*R_UNIT 1 OHM
*L_UNIT 1 HENRY

*NAME_MAP
*1 net150
*2 net151
*3 net152
*4 la_data_in[0]
*5 la_data_in[10]
*6 la_data_in[11]
*7 la_data_in[12]
*8 la_data_in[13]
*9 la_data_in[14]
*10 la_data_in[15]
*11 la_data_in[16]
*12 la_data_in[17]
*13 la_data_in[18]
*14 la_data_in[19]
*15 la_data_in[1]
*16 la_data_in[20]
*17 la_data_in[21]
*18 la_data_in[22]
*19 la_data_in[23]
*20 la_data_in[24]
*21 la_data_in[25]
*22 la_data_in[26]
*23 la_data_in[27]
*24 la_data_in[28]
*25 la_data_in[29]
*26 la_data_in[2]
*27 la_data_in[30]
*28 la_data_in[31]
*29 la_data_in[32]
*30 la_data_in[33]
*31 la_data_in[34]
*32 la_data_in[35]
*33 la_data_in[36]
*34 la_data_in[37]
*35 la_data_in[38]
*36 la_data_in[39]
*37 la_data_in[3]
*38 la_data_in[40]
*39 la_data_in[41]
*40 la_data_in[42]
*41 la_data_in[43]
*42 la_data_in[44]
*43 la_data_in[45]
*44 la_data_in[46]
*45 la_data_in[47]
*46 la_data_in[48]
*47 la_data_in[49]
*48 la_data_in[4]
*49 la_data_in[50]
*50 la_data_in[51]
*51 la_data_in[52]
*52 la_data_in[53]
*53 la_data_in[54]
*54 la_data_in[55]
*55 la_data_in[56]
*56 la_data_in[57]
*57 la_data_in[58]
*58 la_data_in[59]
*59 la_data_in[5]
*60 la_data_in[60]
*61 la_data_in[61]
*62 la_data_in[62]
*63 la_data_in[63]
*64 la_data_in[6]
*65 la_data_in[7]
*66 la_data_in[8]
*67 la_data_in[9]
*68 la_data_out[0]
*69 la_data_out[10]
*70 la_data_out[11]
*71 la_data_out[12]
*72 la_data_out[13]
*73 la_data_out[14]
*74 la_data_out[15]
*75 net153
*76 net154
*77 net155
*78 net156
*79 la_data_out[1]
*80 net157
*81 net158
*82 net159
*83 net160
*84 net161
*85 net95
*86 net96
*87 net97
*88 net98
*89 net99
*90 la_data_out[2]
*91 net100
*92 net101
*93 net102
*94 net103
*95 net104
*96 net105
*97 net106
*98 net107
*99 net108
*100 net109
*101 la_data_out[3]
*102 net110
*103 net111
*104 net112
*105 net113
*106 net114
*107 net115
*108 net116
*109 net117
*110 net118
*111 net119
*112 la_data_out[4]
*113 net120
*114 net121
*115 net122
*116 net123
*117 net124
*118 net125
*119 net126
*120 net127
*121 net128
*122 net129
*123 la_data_out[5]
*124 net130
*125 net131
*126 net132
*127 net133
*128 la_data_out[6]
*129 la_data_out[7]
*130 la_data_out[8]
*131 la_data_out[9]
*132 la_oenb[0]
*133 la_oenb[10]
*134 la_oenb[11]
*135 la_oenb[12]
*136 la_oenb[13]
*137 la_oenb[14]
*138 la_oenb[15]
*139 la_oenb[16]
*140 la_oenb[17]
*141 la_oenb[18]
*142 la_oenb[19]
*143 la_oenb[1]
*144 la_oenb[20]
*145 la_oenb[21]
*146 la_oenb[22]
*147 la_oenb[23]
*148 la_oenb[24]
*149 la_oenb[25]
*150 la_oenb[26]
*151 la_oenb[27]
*152 la_oenb[28]
*153 la_oenb[29]
*154 la_oenb[2]
*155 la_oenb[30]
*156 la_oenb[31]
*157 la_oenb[32]
*158 la_oenb[33]
*159 la_oenb[34]
*160 la_oenb[35]
*161 la_oenb[36]
*162 la_oenb[37]
*163 la_oenb[38]
*164 la_oenb[39]
*165 la_oenb[3]
*166 la_oenb[40]
*167 la_oenb[41]
*168 la_oenb[42]
*169 la_oenb[43]
*170 la_oenb[44]
*171 la_oenb[45]
*172 la_oenb[46]
*173 la_oenb[47]
*174 la_oenb[48]
*175 la_oenb[49]
*176 la_oenb[4]
*177 la_oenb[50]
*178 la_oenb[51]
*179 la_oenb[52]
*180 la_oenb[53]
*181 la_oenb[54]
*182 la_oenb[55]
*183 la_oenb[56]
*184 la_oenb[57]
*185 la_oenb[58]
*186 la_oenb[59]
*187 la_oenb[5]
*188 la_oenb[60]
*189 la_oenb[61]
*190 la_oenb[62]
*191 la_oenb[63]
*192 la_oenb[6]
*193 la_oenb[7]
*194 la_oenb[8]
*195 la_oenb[9]
*198 wb_clk_i
*199 wb_rst_i
*200 wbs_ack_o
*201 wbs_adr_i[0]
*202 wbs_adr_i[10]
*203 wbs_adr_i[11]
*204 wbs_adr_i[12]
*205 wbs_adr_i[13]
*206 wbs_adr_i[14]
*207 wbs_adr_i[15]
*208 wbs_adr_i[16]
*209 wbs_adr_i[17]
*210 wbs_adr_i[18]
*211 wbs_adr_i[19]
*212 wbs_adr_i[1]
*213 wbs_adr_i[20]
*214 wbs_adr_i[21]
*215 wbs_adr_i[22]
*216 wbs_adr_i[23]
*217 wbs_adr_i[24]
*218 wbs_adr_i[25]
*219 wbs_adr_i[26]
*220 wbs_adr_i[27]
*221 wbs_adr_i[28]
*222 wbs_adr_i[29]
*223 wbs_adr_i[2]
*224 wbs_adr_i[30]
*225 wbs_adr_i[31]
*226 wbs_adr_i[3]
*227 wbs_adr_i[4]
*228 wbs_adr_i[5]
*229 wbs_adr_i[6]
*230 wbs_adr_i[7]
*231 wbs_adr_i[8]
*232 wbs_adr_i[9]
*233 wbs_cyc_i
*234 wbs_dat_i[0]
*235 wbs_dat_i[10]
*236 wbs_dat_i[11]
*237 wbs_dat_i[12]
*238 wbs_dat_i[13]
*239 wbs_dat_i[14]
*240 wbs_dat_i[15]
*241 wbs_dat_i[16]
*242 wbs_dat_i[17]
*243 wbs_dat_i[18]
*244 wbs_dat_i[19]
*245 wbs_dat_i[1]
*246 wbs_dat_i[20]
*247 wbs_dat_i[21]
*248 wbs_dat_i[22]
*249 wbs_dat_i[23]
*250 wbs_dat_i[24]
*251 wbs_dat_i[25]
*252 wbs_dat_i[26]
*253 wbs_dat_i[27]
*254 wbs_dat_i[28]
*255 wbs_dat_i[29]
*256 wbs_dat_i[2]
*257 wbs_dat_i[30]
*258 wbs_dat_i[31]
*259 wbs_dat_i[3]
*260 wbs_dat_i[4]
*261 wbs_dat_i[5]
*262 wbs_dat_i[6]
*263 wbs_dat_i[7]
*264 wbs_dat_i[8]
*265 wbs_dat_i[9]
*266 wbs_dat_o[0]
*267 wbs_dat_o[10]
*268 wbs_dat_o[11]
*269 wbs_dat_o[12]
*270 wbs_dat_o[13]
*271 wbs_dat_o[14]
*272 wbs_dat_o[15]
*273 net134
*274 net135
*275 net136
*276 net137
*277 wbs_dat_o[1]
*278 net138
*279 net139
*280 net140
*281 net141
*282 net142
*283 net143
*284 net144
*285 net145
*286 net146
*287 net147
*288 wbs_dat_o[2]
*289 net148
*290 net149
*291 wbs_dat_o[3]
*292 wbs_dat_o[4]
*293 wbs_dat_o[5]
*294 wbs_dat_o[6]
*295 wbs_dat_o[7]
*296 wbs_dat_o[8]
*297 wbs_dat_o[9]
*298 wbs_sel_i[0]
*299 wbs_sel_i[1]
*300 wbs_sel_i[2]
*301 wbs_sel_i[3]
*302 wbs_stb_i
*303 wbs_we_i
*304 _000_
*305 _001_
*306 _002_
*307 _003_
*308 _004_
*309 _005_
*310 _006_
*311 _007_
*312 _008_
*313 _009_
*314 _010_
*315 _011_
*316 _012_
*317 _013_
*318 _014_
*319 _015_
*320 _016_
*321 _017_
*322 _018_
*323 _019_
*324 _020_
*325 _021_
*326 _022_
*327 _023_
*328 _024_
*329 _025_
*330 _026_
*331 _027_
*332 _028_
*333 _029_
*334 _030_
*335 _031_
*336 _032_
*337 _033_
*338 _034_
*339 _035_
*340 _036_
*341 _037_
*342 _038_
*343 _039_
*344 _040_
*345 _041_
*346 _042_
*347 _043_
*348 _044_
*349 _045_
*350 _046_
*351 _047_
*352 _048_
*353 _049_
*354 _050_
*355 _051_
*356 _052_
*357 _053_
*358 _054_
*359 _055_
*360 _056_
*361 _057_
*362 _058_
*363 _059_
*364 _060_
*365 _061_
*366 _062_
*367 _063_
*368 _064_
*369 _065_
*370 _066_
*371 _067_
*372 _068_
*373 _069_
*374 _070_
*375 _071_
*376 _072_
*377 _073_
*378 _074_
*379 _075_
*380 _076_
*381 _077_
*382 _078_
*383 _079_
*384 _080_
*385 _081_
*386 _082_
*387 _083_
*388 _084_
*389 _085_
*390 _086_
*391 _087_
*392 _088_
*393 _089_
*394 _090_
*395 _091_
*396 _092_
*397 _093_
*398 _094_
*399 _095_
*400 _096_
*401 _097_
*402 _098_
*403 _099_
*404 _100_
*405 _101_
*406 _102_
*407 _103_
*408 _104_
*409 _105_
*410 _106_
*411 _107_
*412 _108_
*413 _109_
*414 _110_
*415 _111_
*416 _112_
*417 _113_
*418 _114_
*419 _115_
*420 _116_
*421 _117_
*422 _118_
*423 _119_
*424 _120_
*425 _121_
*426 _122_
*427 _123_
*428 _124_
*429 _125_
*430 _126_
*431 _127_
*432 _128_
*433 _129_
*434 _130_
*435 _131_
*436 _132_
*437 _133_
*438 _134_
*439 _135_
*440 _136_
*441 _137_
*442 _138_
*443 _139_
*444 _140_
*445 _141_
*446 _142_
*447 _143_
*448 _144_
*449 _145_
*450 _146_
*451 _147_
*452 _148_
*453 _149_
*454 _150_
*455 _151_
*456 _152_
*457 _153_
*458 _154_
*459 _155_
*460 _156_
*461 _157_
*462 _158_
*463 _159_
*464 _160_
*465 _161_
*466 _162_
*467 _163_
*468 _164_
*469 _165_
*470 _166_
*471 _167_
*472 _168_
*473 _169_
*474 _170_
*475 _171_
*476 _172_
*477 _173_
*478 _174_
*479 _175_
*480 _176_
*481 _177_
*482 _178_
*483 _179_
*484 _180_
*485 _181_
*486 _182_
*487 _183_
*488 _184_
*489 clknet_0_counter\.clk
*490 clknet_2_0__leaf_counter\.clk
*491 clknet_2_1__leaf_counter\.clk
*492 clknet_2_2__leaf_counter\.clk
*493 clknet_2_3__leaf_counter\.clk
*494 counter\.clk
*495 net1
*496 net10
*497 net11
*498 net12
*499 net13
*500 net14
*501 net15
*502 net16
*503 net162
*504 net163
*505 net164
*506 net165
*507 net166
*508 net167
*509 net168
*510 net169
*511 net17
*512 net170
*513 net171
*514 net172
*515 net173
*516 net174
*517 net175
*518 net176
*519 net177
*520 net178
*521 net179
*522 net18
*523 net180
*524 net181
*525 net182
*526 net183
*527 net184
*528 net185
*529 net186
*530 net187
*531 net188
*532 net189
*533 net19
*534 net190
*535 net191
*536 net192
*537 net193
*538 net194
*539 net195
*540 net196
*541 net197
*542 net198
*543 net199
*544 net2
*545 net20
*546 net200
*547 net201
*548 net202
*549 net203
*550 net204
*551 net205
*552 net206
*553 net207
*554 net208
*555 net209
*556 net21
*557 net210
*558 net211
*559 net212
*560 net213
*561 net214
*562 net215
*563 net216
*564 net217
*565 net218
*566 net219
*567 net22
*568 net220
*569 net221
*570 net222
*571 net223
*572 net224
*573 net225
*574 net226
*575 net227
*576 net228
*577 net229
*578 net23
*579 net230
*580 net231
*581 net232
*582 net233
*583 net234
*584 net235
*585 net236
*586 net237
*587 net238
*588 net239
*589 net24
*590 net240
*591 net241
*592 net242
*593 net243
*594 net244
*595 net245
*596 net246
*597 net247
*598 net248
*599 net25
*600 net26
*601 net27
*602 net28
*603 net29
*604 net3
*605 net30
*606 net31
*607 net32
*608 net33
*609 net34
*610 net35
*611 net36
*612 net37
*613 net38
*614 net39
*615 net4
*616 net40
*617 net41
*618 net42
*619 net43
*620 net44
*621 net45
*622 net46
*623 net47
*624 net48
*625 net49
*626 net5
*627 net50
*628 net51
*629 net52
*630 net53
*631 net54
*632 net55
*633 net56
*634 net57
*635 net58
*636 net59
*637 net6
*638 net60
*639 net61
*640 net62
*641 net63
*642 net64
*643 net65
*644 net66
*645 net67
*646 net68
*647 net69
*648 net7
*649 net70
*650 net71
*651 net72
*652 net73
*653 net74
*654 net75
*655 net76
*656 net77
*657 net78
*658 net79
*659 net8
*660 net80
*661 net81
*662 net82
*663 net83
*664 net84
*665 net85
*666 net86
*667 net87
*668 net88
*669 net89
*670 net9
*671 net90
*672 net91
*673 net92
*674 net93
*675 net94
*676 ANTENNA__185__I1
*677 ANTENNA__186__I
*678 ANTENNA__187__I
*679 ANTENNA__188__A1
*680 ANTENNA__188__A2
*681 ANTENNA__191__I1
*682 ANTENNA__192__A2
*683 ANTENNA__193__I
*684 ANTENNA__195__I
*685 ANTENNA__196__I
*686 ANTENNA__201__A2
*687 ANTENNA__203__I
*688 ANTENNA__204__I
*689 ANTENNA__205__B2
*690 ANTENNA__206__B2
*691 ANTENNA__208__I
*692 ANTENNA__209__I
*693 ANTENNA__212__B2
*694 ANTENNA__213__A1
*695 ANTENNA__213__A2
*696 ANTENNA__216__B1
*697 ANTENNA__216__B2
*698 ANTENNA__217__A1
*699 ANTENNA__219__A1
*700 ANTENNA__220__A2
*701 ANTENNA__220__B
*702 ANTENNA__221__I
*703 ANTENNA__224__I
*704 ANTENNA__225__I
*705 ANTENNA__226__A1
*706 ANTENNA__227__A1
*707 ANTENNA__227__A2
*708 ANTENNA__229__I
*709 ANTENNA__232__A2
*710 ANTENNA__233__A1
*711 ANTENNA__234__A1
*712 ANTENNA__234__A2
*713 ANTENNA__235__A1
*714 ANTENNA__237__A2
*715 ANTENNA__238__A1
*716 ANTENNA__239__A1
*717 ANTENNA__240__A1
*718 ANTENNA__240__A2
*719 ANTENNA__241__A1
*720 ANTENNA__244__A2
*721 ANTENNA__244__A3
*722 ANTENNA__245__A1
*723 ANTENNA__247__A1
*724 ANTENNA__247__A2
*725 ANTENNA__248__A1
*726 ANTENNA__251__I
*727 ANTENNA__252__A3
*728 ANTENNA__252__A4
*729 ANTENNA__253__A1
*730 ANTENNA__254__I
*731 ANTENNA__255__I
*732 ANTENNA__256__A1
*733 ANTENNA__257__A1
*734 ANTENNA__257__A2
*735 ANTENNA__258__A1
*736 ANTENNA__259__I
*737 ANTENNA__261__A1
*738 ANTENNA__261__A2
*739 ANTENNA__263__A1
*740 ANTENNA__263__B
*741 ANTENNA__264__A1
*742 ANTENNA__266__A2
*743 ANTENNA__268__A1
*744 ANTENNA__269__A1
*745 ANTENNA__269__A2
*746 ANTENNA__270__A1
*747 ANTENNA__273__A1
*748 ANTENNA__273__A2
*749 ANTENNA__274__A1
*750 ANTENNA__276__A2
*751 ANTENNA__279__A2
*752 ANTENNA__279__B
*753 ANTENNA__282__A1
*754 ANTENNA__282__A2
*755 ANTENNA__284__A1
*756 ANTENNA__285__A1
*757 ANTENNA__285__A2
*758 ANTENNA__287__A2
*759 ANTENNA__287__C2
*760 ANTENNA__289__A1
*761 ANTENNA__290__A2
*762 ANTENNA__292__A1
*763 ANTENNA__293__A2
*764 ANTENNA__293__B2
*765 ANTENNA__295__I
*766 ANTENNA__297__A1
*767 ANTENNA__299__C2
*768 ANTENNA__301__A1
*769 ANTENNA__302__A1
*770 ANTENNA__302__B
*771 ANTENNA__303__I
*772 ANTENNA__304__I
*773 ANTENNA__305__A1
*774 ANTENNA__305__A2
*775 ANTENNA__308__C2
*776 ANTENNA__310__A1
*777 ANTENNA__312__A1
*778 ANTENNA__313__C2
*779 ANTENNA__316__A1
*780 ANTENNA__317__A1
*781 ANTENNA__318__A1
*782 ANTENNA__320__A1
*783 ANTENNA__321__B2
*784 ANTENNA__325__A1
*785 ANTENNA__327__A1
*786 ANTENNA__328__B2
*787 ANTENNA__330__A1
*788 ANTENNA__331__A1
*789 ANTENNA__332__C2
*790 ANTENNA__334__I
*791 ANTENNA__339__I1
*792 ANTENNA__341__I1
*793 ANTENNA__343__I1
*794 ANTENNA__346__I1
*795 ANTENNA__348__I1
*796 ANTENNA__350__I1
*797 ANTENNA__352__I1
*798 ANTENNA__356__A1
*799 ANTENNA__357__I1
*800 ANTENNA__360__A1
*801 ANTENNA__362__A1
*802 ANTENNA__363__I1
*803 ANTENNA__366__A1
*804 ANTENNA__368__A1
*805 ANTENNA__369__I1
*806 ANTENNA__371__CLK
*807 ANTENNA__373__CLK
*808 ANTENNA__374__CLK
*809 ANTENNA__376__CLK
*810 ANTENNA__381__CLK
*811 ANTENNA__382__CLK
*812 ANTENNA__383__CLK
*813 ANTENNA__384__CLK
*814 ANTENNA__385__CLK
*815 ANTENNA__386__CLK
*816 ANTENNA__387__CLK
*817 ANTENNA__388__CLK
*818 ANTENNA__389__CLK
*819 ANTENNA__390__CLK
*820 ANTENNA__391__CLK
*821 ANTENNA__392__CLK
*822 ANTENNA__393__CLK
*823 ANTENNA__394__CLK
*824 ANTENNA__395__CLK
*825 ANTENNA__396__CLK
*826 ANTENNA__397__CLK
*827 ANTENNA__398__CLK
*828 ANTENNA__399__CLK
*829 ANTENNA__400__CLK
*830 ANTENNA__401__CLK
*831 ANTENNA__402__CLK
*832 ANTENNA__403__CLK
*833 ANTENNA_clkbuf_0_counter\.clk_I
*834 ANTENNA_clkbuf_2_0__f_counter\.clk_I
*835 ANTENNA_clkbuf_2_1__f_counter\.clk_I
*836 ANTENNA_clkbuf_2_2__f_counter\.clk_I
*837 ANTENNA_clkbuf_2_3__f_counter\.clk_I
*838 ANTENNA_hold10_I
*839 ANTENNA_hold13_I
*840 ANTENNA_hold17_I
*841 ANTENNA_hold18_I
*842 ANTENNA_hold1_I
*843 ANTENNA_hold21_I
*844 ANTENNA_hold25_I
*845 ANTENNA_hold29_I
*846 ANTENNA_hold33_I
*847 ANTENNA_hold34_I
*848 ANTENNA_hold37_I
*849 ANTENNA_hold38_I
*850 ANTENNA_hold41_I
*851 ANTENNA_hold45_I
*852 ANTENNA_hold49_I
*853 ANTENNA_hold50_I
*854 ANTENNA_hold53_I
*855 ANTENNA_hold54_I
*856 ANTENNA_hold57_I
*857 ANTENNA_hold5_I
*858 ANTENNA_hold61_I
*859 ANTENNA_hold65_I
*860 ANTENNA_hold68_I
*861 ANTENNA_hold69_I
*862 ANTENNA_hold71_I
*863 ANTENNA_hold72_I
*864 ANTENNA_hold74_I
*865 ANTENNA_hold75_I
*866 ANTENNA_hold76_I
*867 ANTENNA_hold77_I
*868 ANTENNA_hold79_I
*869 ANTENNA_hold80_I
*870 ANTENNA_hold81_I
*871 ANTENNA_hold82_I
*872 ANTENNA_hold83_I
*873 ANTENNA_hold84_I
*874 ANTENNA_hold85_I
*875 ANTENNA_hold86_I
*876 ANTENNA_hold87_I
*877 ANTENNA_hold9_I
*878 ANTENNA_input17_I
*879 ANTENNA_input35_I
*880 ANTENNA_input37_I
*881 ANTENNA_input38_I
*882 ANTENNA_input39_I
*883 ANTENNA_input40_I
*884 ANTENNA_input41_I
*885 ANTENNA_input42_I
*886 ANTENNA_input43_I
*887 ANTENNA_input44_I
*888 ANTENNA_input45_I
*889 ANTENNA_input46_I
*890 ANTENNA_input47_I
*891 ANTENNA_input48_I
*892 ANTENNA_input49_I
*893 ANTENNA_input50_I
*894 ANTENNA_input51_I
*895 ANTENNA_input52_I
*896 ANTENNA_input53_I
*897 ANTENNA_input54_I
*898 ANTENNA_input55_I
*899 ANTENNA_input56_I
*900 ANTENNA_input57_I
*901 ANTENNA_input58_I
*902 ANTENNA_output60_I
*903 ANTENNA_output61_I
*904 ANTENNA_output65_I
*905 ANTENNA_output68_I
*906 ANTENNA_output70_I
*907 ANTENNA_output72_I
*908 ANTENNA_output74_I
*909 ANTENNA_output75_I
*910 FILLER_0_0_168
*911 FILLER_0_0_2
*912 FILLER_0_0_342
*913 FILLER_0_0_346
*914 FILLER_0_0_393
*915 FILLER_0_0_416
*916 FILLER_0_0_418
*917 FILLER_0_0_441
*918 FILLER_0_0_472
*919 FILLER_0_0_498
*920 FILLER_0_0_509
*921 FILLER_0_0_512
*922 FILLER_0_0_539
*923 FILLER_0_0_546
*924 FILLER_0_0_611
*925 FILLER_0_0_639
*926 FILLER_0_0_679
*927 FILLER_0_10_103
*928 FILLER_0_10_107
*929 FILLER_0_10_111
*930 FILLER_0_10_127
*931 FILLER_0_10_131
*932 FILLER_0_10_139
*933 FILLER_0_10_143
*934 FILLER_0_10_147
*935 FILLER_0_10_153
*936 FILLER_0_10_157
*937 FILLER_0_10_159
*938 FILLER_0_10_177
*939 FILLER_0_10_181
*940 FILLER_0_10_188
*941 FILLER_0_10_192
*942 FILLER_0_10_2
*943 FILLER_0_10_225
*944 FILLER_0_10_229
*945 FILLER_0_10_233
*946 FILLER_0_10_237
*947 FILLER_0_10_241
*948 FILLER_0_10_331
*949 FILLER_0_10_34
*950 FILLER_0_10_37
*951 FILLER_0_10_396
*952 FILLER_0_10_429
*953 FILLER_0_10_433
*954 FILLER_0_10_437
*955 FILLER_0_10_454
*956 FILLER_0_10_457
*957 FILLER_0_10_521
*958 FILLER_0_10_527
*959 FILLER_0_10_591
*960 FILLER_0_10_597
*961 FILLER_0_10_601
*962 FILLER_0_10_605
*963 FILLER_0_10_609
*964 FILLER_0_10_613
*965 FILLER_0_10_617
*966 FILLER_0_10_621
*967 FILLER_0_10_625
*968 FILLER_0_10_629
*969 FILLER_0_10_633
*970 FILLER_0_10_637
*971 FILLER_0_10_641
*972 FILLER_0_10_645
*973 FILLER_0_10_648
*974 FILLER_0_10_664
*975 FILLER_0_10_667
*976 FILLER_0_10_683
*977 FILLER_0_10_687
*978 FILLER_0_10_69
*979 FILLER_0_10_85
*980 FILLER_0_10_93
*981 FILLER_0_10_99
*982 FILLER_0_11_137
*983 FILLER_0_11_139
*984 FILLER_0_11_142
*985 FILLER_0_11_146
*986 FILLER_0_11_148
*987 FILLER_0_11_178
*988 FILLER_0_11_182
*989 FILLER_0_11_184
*990 FILLER_0_11_187
*991 FILLER_0_11_191
*992 FILLER_0_11_2
*993 FILLER_0_11_212
*994 FILLER_0_11_216
*995 FILLER_0_11_220
*996 FILLER_0_11_224
*997 FILLER_0_11_228
*998 FILLER_0_11_230
*999 FILLER_0_11_233
*1000 FILLER_0_11_235
*1001 FILLER_0_11_238
*1002 FILLER_0_11_242
*1003 FILLER_0_11_246
*1004 FILLER_0_11_264
*1005 FILLER_0_11_270
*1006 FILLER_0_11_282
*1007 FILLER_0_11_339
*1008 FILLER_0_11_358
*1009 FILLER_0_11_390
*1010 FILLER_0_11_392
*1011 FILLER_0_11_418
*1012 FILLER_0_11_426
*1013 FILLER_0_11_431
*1014 FILLER_0_11_435
*1015 FILLER_0_11_439
*1016 FILLER_0_11_443
*1017 FILLER_0_11_475
*1018 FILLER_0_11_483
*1019 FILLER_0_11_487
*1020 FILLER_0_11_489
*1021 FILLER_0_11_492
*1022 FILLER_0_11_556
*1023 FILLER_0_11_562
*1024 FILLER_0_11_626
*1025 FILLER_0_11_632
*1026 FILLER_0_11_66
*1027 FILLER_0_11_664
*1028 FILLER_0_11_680
*1029 FILLER_0_11_72
*1030 FILLER_0_11_80
*1031 FILLER_0_11_84
*1032 FILLER_0_11_86
*1033 FILLER_0_12_113
*1034 FILLER_0_12_145
*1035 FILLER_0_12_153
*1036 FILLER_0_12_157
*1037 FILLER_0_12_165
*1038 FILLER_0_12_177
*1039 FILLER_0_12_183
*1040 FILLER_0_12_193
*1041 FILLER_0_12_197
*1042 FILLER_0_12_2
*1043 FILLER_0_12_200
*1044 FILLER_0_12_204
*1045 FILLER_0_12_208
*1046 FILLER_0_12_212
*1047 FILLER_0_12_216
*1048 FILLER_0_12_220
*1049 FILLER_0_12_224
*1050 FILLER_0_12_227
*1051 FILLER_0_12_231
*1052 FILLER_0_12_235
*1053 FILLER_0_12_243
*1054 FILLER_0_12_247
*1055 FILLER_0_12_255
*1056 FILLER_0_12_259
*1057 FILLER_0_12_262
*1058 FILLER_0_12_266
*1059 FILLER_0_12_280
*1060 FILLER_0_12_34
*1061 FILLER_0_12_354
*1062 FILLER_0_12_360
*1063 FILLER_0_12_364
*1064 FILLER_0_12_368
*1065 FILLER_0_12_37
*1066 FILLER_0_12_372
*1067 FILLER_0_12_380
*1068 FILLER_0_12_384
*1069 FILLER_0_12_387
*1070 FILLER_0_12_389
*1071 FILLER_0_12_392
*1072 FILLER_0_12_396
*1073 FILLER_0_12_398
*1074 FILLER_0_12_415
*1075 FILLER_0_12_419
*1076 FILLER_0_12_423
*1077 FILLER_0_12_457
*1078 FILLER_0_12_521
*1079 FILLER_0_12_527
*1080 FILLER_0_12_591
*1081 FILLER_0_12_597
*1082 FILLER_0_12_661
*1083 FILLER_0_12_667
*1084 FILLER_0_12_683
*1085 FILLER_0_12_687
*1086 FILLER_0_12_69
*1087 FILLER_0_12_73
*1088 FILLER_0_12_75
*1089 FILLER_0_13_104
*1090 FILLER_0_13_107
*1091 FILLER_0_13_139
*1092 FILLER_0_13_142
*1093 FILLER_0_13_2
*1094 FILLER_0_13_206
*1095 FILLER_0_13_212
*1096 FILLER_0_13_244
*1097 FILLER_0_13_260
*1098 FILLER_0_13_268
*1099 FILLER_0_13_272
*1100 FILLER_0_13_276
*1101 FILLER_0_13_282
*1102 FILLER_0_13_286
*1103 FILLER_0_13_290
*1104 FILLER_0_13_316
*1105 FILLER_0_13_332
*1106 FILLER_0_13_352
*1107 FILLER_0_13_356
*1108 FILLER_0_13_422
*1109 FILLER_0_13_486
*1110 FILLER_0_13_492
*1111 FILLER_0_13_556
*1112 FILLER_0_13_562
*1113 FILLER_0_13_626
*1114 FILLER_0_13_632
*1115 FILLER_0_13_66
*1116 FILLER_0_13_664
*1117 FILLER_0_13_680
*1118 FILLER_0_13_72
*1119 FILLER_0_14_101
*1120 FILLER_0_14_107
*1121 FILLER_0_14_171
*1122 FILLER_0_14_177
*1123 FILLER_0_14_2
*1124 FILLER_0_14_241
*1125 FILLER_0_14_247
*1126 FILLER_0_14_279
*1127 FILLER_0_14_303
*1128 FILLER_0_14_311
*1129 FILLER_0_14_323
*1130 FILLER_0_14_330
*1131 FILLER_0_14_334
*1132 FILLER_0_14_34
*1133 FILLER_0_14_366
*1134 FILLER_0_14_37
*1135 FILLER_0_14_382
*1136 FILLER_0_14_384
*1137 FILLER_0_14_387
*1138 FILLER_0_14_451
*1139 FILLER_0_14_457
*1140 FILLER_0_14_521
*1141 FILLER_0_14_527
*1142 FILLER_0_14_591
*1143 FILLER_0_14_597
*1144 FILLER_0_14_661
*1145 FILLER_0_14_667
*1146 FILLER_0_14_683
*1147 FILLER_0_14_687
*1148 FILLER_0_15_136
*1149 FILLER_0_15_142
*1150 FILLER_0_15_2
*1151 FILLER_0_15_206
*1152 FILLER_0_15_212
*1153 FILLER_0_15_276
*1154 FILLER_0_15_282
*1155 FILLER_0_15_290
*1156 FILLER_0_15_294
*1157 FILLER_0_15_296
*1158 FILLER_0_15_313
*1159 FILLER_0_15_345
*1160 FILLER_0_15_349
*1161 FILLER_0_15_352
*1162 FILLER_0_15_416
*1163 FILLER_0_15_422
*1164 FILLER_0_15_486
*1165 FILLER_0_15_492
*1166 FILLER_0_15_556
*1167 FILLER_0_15_562
*1168 FILLER_0_15_626
*1169 FILLER_0_15_632
*1170 FILLER_0_15_66
*1171 FILLER_0_15_664
*1172 FILLER_0_15_680
*1173 FILLER_0_15_72
*1174 FILLER_0_16_101
*1175 FILLER_0_16_107
*1176 FILLER_0_16_171
*1177 FILLER_0_16_177
*1178 FILLER_0_16_2
*1179 FILLER_0_16_241
*1180 FILLER_0_16_247
*1181 FILLER_0_16_311
*1182 FILLER_0_16_317
*1183 FILLER_0_16_34
*1184 FILLER_0_16_37
*1185 FILLER_0_16_381
*1186 FILLER_0_16_387
*1187 FILLER_0_16_451
*1188 FILLER_0_16_457
*1189 FILLER_0_16_521
*1190 FILLER_0_16_527
*1191 FILLER_0_16_591
*1192 FILLER_0_16_597
*1193 FILLER_0_16_661
*1194 FILLER_0_16_667
*1195 FILLER_0_16_683
*1196 FILLER_0_16_687
*1197 FILLER_0_17_136
*1198 FILLER_0_17_142
*1199 FILLER_0_17_2
*1200 FILLER_0_17_206
*1201 FILLER_0_17_212
*1202 FILLER_0_17_276
*1203 FILLER_0_17_282
*1204 FILLER_0_17_346
*1205 FILLER_0_17_352
*1206 FILLER_0_17_416
*1207 FILLER_0_17_422
*1208 FILLER_0_17_486
*1209 FILLER_0_17_492
*1210 FILLER_0_17_556
*1211 FILLER_0_17_562
*1212 FILLER_0_17_626
*1213 FILLER_0_17_632
*1214 FILLER_0_17_66
*1215 FILLER_0_17_664
*1216 FILLER_0_17_680
*1217 FILLER_0_17_72
*1218 FILLER_0_18_101
*1219 FILLER_0_18_107
*1220 FILLER_0_18_171
*1221 FILLER_0_18_177
*1222 FILLER_0_18_2
*1223 FILLER_0_18_241
*1224 FILLER_0_18_247
*1225 FILLER_0_18_311
*1226 FILLER_0_18_317
*1227 FILLER_0_18_34
*1228 FILLER_0_18_37
*1229 FILLER_0_18_381
*1230 FILLER_0_18_387
*1231 FILLER_0_18_451
*1232 FILLER_0_18_457
*1233 FILLER_0_18_521
*1234 FILLER_0_18_527
*1235 FILLER_0_18_591
*1236 FILLER_0_18_597
*1237 FILLER_0_18_661
*1238 FILLER_0_18_667
*1239 FILLER_0_18_683
*1240 FILLER_0_18_687
*1241 FILLER_0_19_136
*1242 FILLER_0_19_142
*1243 FILLER_0_19_2
*1244 FILLER_0_19_206
*1245 FILLER_0_19_212
*1246 FILLER_0_19_276
*1247 FILLER_0_19_282
*1248 FILLER_0_19_346
*1249 FILLER_0_19_352
*1250 FILLER_0_19_416
*1251 FILLER_0_19_422
*1252 FILLER_0_19_486
*1253 FILLER_0_19_492
*1254 FILLER_0_19_556
*1255 FILLER_0_19_562
*1256 FILLER_0_19_626
*1257 FILLER_0_19_632
*1258 FILLER_0_19_66
*1259 FILLER_0_19_664
*1260 FILLER_0_19_680
*1261 FILLER_0_19_72
*1262 FILLER_0_1_113
*1263 FILLER_0_1_12
*1264 FILLER_0_1_150
*1265 FILLER_0_1_152
*1266 FILLER_0_1_191
*1267 FILLER_0_1_2
*1268 FILLER_0_1_209
*1269 FILLER_0_1_212
*1270 FILLER_0_1_237
*1271 FILLER_0_1_461
*1272 FILLER_0_1_471
*1273 FILLER_0_1_489
*1274 FILLER_0_1_492
*1275 FILLER_0_1_499
*1276 FILLER_0_1_542
*1277 FILLER_0_1_628
*1278 FILLER_0_1_80
*1279 FILLER_0_20_101
*1280 FILLER_0_20_107
*1281 FILLER_0_20_171
*1282 FILLER_0_20_177
*1283 FILLER_0_20_2
*1284 FILLER_0_20_241
*1285 FILLER_0_20_247
*1286 FILLER_0_20_311
*1287 FILLER_0_20_317
*1288 FILLER_0_20_34
*1289 FILLER_0_20_37
*1290 FILLER_0_20_381
*1291 FILLER_0_20_387
*1292 FILLER_0_20_451
*1293 FILLER_0_20_457
*1294 FILLER_0_20_521
*1295 FILLER_0_20_527
*1296 FILLER_0_20_591
*1297 FILLER_0_20_597
*1298 FILLER_0_20_661
*1299 FILLER_0_20_667
*1300 FILLER_0_20_683
*1301 FILLER_0_20_687
*1302 FILLER_0_21_136
*1303 FILLER_0_21_142
*1304 FILLER_0_21_2
*1305 FILLER_0_21_206
*1306 FILLER_0_21_212
*1307 FILLER_0_21_276
*1308 FILLER_0_21_282
*1309 FILLER_0_21_346
*1310 FILLER_0_21_352
*1311 FILLER_0_21_416
*1312 FILLER_0_21_422
*1313 FILLER_0_21_486
*1314 FILLER_0_21_492
*1315 FILLER_0_21_556
*1316 FILLER_0_21_562
*1317 FILLER_0_21_626
*1318 FILLER_0_21_632
*1319 FILLER_0_21_66
*1320 FILLER_0_21_664
*1321 FILLER_0_21_680
*1322 FILLER_0_21_72
*1323 FILLER_0_22_101
*1324 FILLER_0_22_107
*1325 FILLER_0_22_171
*1326 FILLER_0_22_177
*1327 FILLER_0_22_2
*1328 FILLER_0_22_241
*1329 FILLER_0_22_247
*1330 FILLER_0_22_311
*1331 FILLER_0_22_317
*1332 FILLER_0_22_34
*1333 FILLER_0_22_37
*1334 FILLER_0_22_381
*1335 FILLER_0_22_387
*1336 FILLER_0_22_451
*1337 FILLER_0_22_457
*1338 FILLER_0_22_521
*1339 FILLER_0_22_527
*1340 FILLER_0_22_591
*1341 FILLER_0_22_597
*1342 FILLER_0_22_661
*1343 FILLER_0_22_667
*1344 FILLER_0_22_683
*1345 FILLER_0_22_687
*1346 FILLER_0_23_136
*1347 FILLER_0_23_142
*1348 FILLER_0_23_2
*1349 FILLER_0_23_206
*1350 FILLER_0_23_212
*1351 FILLER_0_23_276
*1352 FILLER_0_23_282
*1353 FILLER_0_23_346
*1354 FILLER_0_23_352
*1355 FILLER_0_23_416
*1356 FILLER_0_23_422
*1357 FILLER_0_23_486
*1358 FILLER_0_23_492
*1359 FILLER_0_23_556
*1360 FILLER_0_23_562
*1361 FILLER_0_23_626
*1362 FILLER_0_23_632
*1363 FILLER_0_23_66
*1364 FILLER_0_23_664
*1365 FILLER_0_23_680
*1366 FILLER_0_23_72
*1367 FILLER_0_24_101
*1368 FILLER_0_24_107
*1369 FILLER_0_24_171
*1370 FILLER_0_24_177
*1371 FILLER_0_24_2
*1372 FILLER_0_24_241
*1373 FILLER_0_24_247
*1374 FILLER_0_24_311
*1375 FILLER_0_24_317
*1376 FILLER_0_24_34
*1377 FILLER_0_24_37
*1378 FILLER_0_24_381
*1379 FILLER_0_24_387
*1380 FILLER_0_24_451
*1381 FILLER_0_24_457
*1382 FILLER_0_24_521
*1383 FILLER_0_24_527
*1384 FILLER_0_24_591
*1385 FILLER_0_24_597
*1386 FILLER_0_24_661
*1387 FILLER_0_24_667
*1388 FILLER_0_24_683
*1389 FILLER_0_24_687
*1390 FILLER_0_25_136
*1391 FILLER_0_25_142
*1392 FILLER_0_25_2
*1393 FILLER_0_25_206
*1394 FILLER_0_25_212
*1395 FILLER_0_25_276
*1396 FILLER_0_25_282
*1397 FILLER_0_25_346
*1398 FILLER_0_25_352
*1399 FILLER_0_25_416
*1400 FILLER_0_25_422
*1401 FILLER_0_25_486
*1402 FILLER_0_25_492
*1403 FILLER_0_25_556
*1404 FILLER_0_25_562
*1405 FILLER_0_25_626
*1406 FILLER_0_25_632
*1407 FILLER_0_25_66
*1408 FILLER_0_25_664
*1409 FILLER_0_25_680
*1410 FILLER_0_25_72
*1411 FILLER_0_26_101
*1412 FILLER_0_26_107
*1413 FILLER_0_26_171
*1414 FILLER_0_26_177
*1415 FILLER_0_26_2
*1416 FILLER_0_26_241
*1417 FILLER_0_26_247
*1418 FILLER_0_26_311
*1419 FILLER_0_26_317
*1420 FILLER_0_26_34
*1421 FILLER_0_26_37
*1422 FILLER_0_26_381
*1423 FILLER_0_26_387
*1424 FILLER_0_26_451
*1425 FILLER_0_26_457
*1426 FILLER_0_26_521
*1427 FILLER_0_26_527
*1428 FILLER_0_26_591
*1429 FILLER_0_26_597
*1430 FILLER_0_26_661
*1431 FILLER_0_26_667
*1432 FILLER_0_26_683
*1433 FILLER_0_26_687
*1434 FILLER_0_27_136
*1435 FILLER_0_27_142
*1436 FILLER_0_27_2
*1437 FILLER_0_27_206
*1438 FILLER_0_27_212
*1439 FILLER_0_27_276
*1440 FILLER_0_27_282
*1441 FILLER_0_27_346
*1442 FILLER_0_27_352
*1443 FILLER_0_27_416
*1444 FILLER_0_27_422
*1445 FILLER_0_27_486
*1446 FILLER_0_27_492
*1447 FILLER_0_27_556
*1448 FILLER_0_27_562
*1449 FILLER_0_27_626
*1450 FILLER_0_27_632
*1451 FILLER_0_27_66
*1452 FILLER_0_27_664
*1453 FILLER_0_27_680
*1454 FILLER_0_27_72
*1455 FILLER_0_28_101
*1456 FILLER_0_28_107
*1457 FILLER_0_28_171
*1458 FILLER_0_28_177
*1459 FILLER_0_28_2
*1460 FILLER_0_28_241
*1461 FILLER_0_28_247
*1462 FILLER_0_28_311
*1463 FILLER_0_28_317
*1464 FILLER_0_28_34
*1465 FILLER_0_28_37
*1466 FILLER_0_28_381
*1467 FILLER_0_28_387
*1468 FILLER_0_28_451
*1469 FILLER_0_28_457
*1470 FILLER_0_28_521
*1471 FILLER_0_28_527
*1472 FILLER_0_28_591
*1473 FILLER_0_28_597
*1474 FILLER_0_28_661
*1475 FILLER_0_28_667
*1476 FILLER_0_28_683
*1477 FILLER_0_28_687
*1478 FILLER_0_29_136
*1479 FILLER_0_29_142
*1480 FILLER_0_29_2
*1481 FILLER_0_29_206
*1482 FILLER_0_29_212
*1483 FILLER_0_29_276
*1484 FILLER_0_29_282
*1485 FILLER_0_29_346
*1486 FILLER_0_29_352
*1487 FILLER_0_29_416
*1488 FILLER_0_29_422
*1489 FILLER_0_29_486
*1490 FILLER_0_29_492
*1491 FILLER_0_29_556
*1492 FILLER_0_29_562
*1493 FILLER_0_29_626
*1494 FILLER_0_29_632
*1495 FILLER_0_29_66
*1496 FILLER_0_29_664
*1497 FILLER_0_29_680
*1498 FILLER_0_29_72
*1499 FILLER_0_2_107
*1500 FILLER_0_2_11
*1501 FILLER_0_2_15
*1502 FILLER_0_2_19
*1503 FILLER_0_2_2
*1504 FILLER_0_2_203
*1505 FILLER_0_2_220
*1506 FILLER_0_2_222
*1507 FILLER_0_2_225
*1508 FILLER_0_2_23
*1509 FILLER_0_2_336
*1510 FILLER_0_2_363
*1511 FILLER_0_2_37
*1512 FILLER_0_2_373
*1513 FILLER_0_2_384
*1514 FILLER_0_2_39
*1515 FILLER_0_2_4
*1516 FILLER_0_2_400
*1517 FILLER_0_2_404
*1518 FILLER_0_2_408
*1519 FILLER_0_2_412
*1520 FILLER_0_2_414
*1521 FILLER_0_2_427
*1522 FILLER_0_2_431
*1523 FILLER_0_2_435
*1524 FILLER_0_2_515
*1525 FILLER_0_2_527
*1526 FILLER_0_2_531
*1527 FILLER_0_2_535
*1528 FILLER_0_2_593
*1529 FILLER_0_2_663
*1530 FILLER_0_2_687
*1531 FILLER_0_2_7
*1532 FILLER_0_30_101
*1533 FILLER_0_30_107
*1534 FILLER_0_30_171
*1535 FILLER_0_30_177
*1536 FILLER_0_30_2
*1537 FILLER_0_30_241
*1538 FILLER_0_30_247
*1539 FILLER_0_30_311
*1540 FILLER_0_30_317
*1541 FILLER_0_30_34
*1542 FILLER_0_30_37
*1543 FILLER_0_30_381
*1544 FILLER_0_30_387
*1545 FILLER_0_30_451
*1546 FILLER_0_30_457
*1547 FILLER_0_30_521
*1548 FILLER_0_30_527
*1549 FILLER_0_30_591
*1550 FILLER_0_30_597
*1551 FILLER_0_30_661
*1552 FILLER_0_30_667
*1553 FILLER_0_30_683
*1554 FILLER_0_30_687
*1555 FILLER_0_31_136
*1556 FILLER_0_31_142
*1557 FILLER_0_31_2
*1558 FILLER_0_31_206
*1559 FILLER_0_31_212
*1560 FILLER_0_31_276
*1561 FILLER_0_31_282
*1562 FILLER_0_31_346
*1563 FILLER_0_31_352
*1564 FILLER_0_31_416
*1565 FILLER_0_31_422
*1566 FILLER_0_31_486
*1567 FILLER_0_31_492
*1568 FILLER_0_31_556
*1569 FILLER_0_31_562
*1570 FILLER_0_31_626
*1571 FILLER_0_31_632
*1572 FILLER_0_31_66
*1573 FILLER_0_31_664
*1574 FILLER_0_31_680
*1575 FILLER_0_31_72
*1576 FILLER_0_32_101
*1577 FILLER_0_32_107
*1578 FILLER_0_32_171
*1579 FILLER_0_32_177
*1580 FILLER_0_32_2
*1581 FILLER_0_32_241
*1582 FILLER_0_32_247
*1583 FILLER_0_32_311
*1584 FILLER_0_32_317
*1585 FILLER_0_32_34
*1586 FILLER_0_32_37
*1587 FILLER_0_32_381
*1588 FILLER_0_32_387
*1589 FILLER_0_32_451
*1590 FILLER_0_32_457
*1591 FILLER_0_32_521
*1592 FILLER_0_32_527
*1593 FILLER_0_32_591
*1594 FILLER_0_32_597
*1595 FILLER_0_32_661
*1596 FILLER_0_32_667
*1597 FILLER_0_32_683
*1598 FILLER_0_32_687
*1599 FILLER_0_33_136
*1600 FILLER_0_33_142
*1601 FILLER_0_33_2
*1602 FILLER_0_33_206
*1603 FILLER_0_33_212
*1604 FILLER_0_33_276
*1605 FILLER_0_33_282
*1606 FILLER_0_33_346
*1607 FILLER_0_33_352
*1608 FILLER_0_33_416