*SPEF "ieee 1481-1999"
*DESIGN "user_project_wrapper"
*DATE "11:11:11 Fri 11 11, 1111"
*VENDOR "OpenRCX"
*PROGRAM "Parallel Extraction"
*VERSION "1.0"
*DESIGN_FLOW "NAME_SCOPE LOCAL" "PIN_CAP NONE"
*DIVIDER /
*DELIMITER :
*BUS_DELIMITER []
*T_UNIT 1 NS
*C_UNIT 1 PF
*R_UNIT 1 OHM
*L_UNIT 1 HENRY

*NAME_MAP
*1 io_in[0]
*2 io_in[10]
*3 io_in[11]
*4 io_in[12]
*5 io_in[13]
*6 io_in[14]
*7 io_in[15]
*8 io_in[16]
*9 io_in[17]
*10 io_in[18]
*11 io_in[19]
*12 io_in[1]
*13 io_in[20]
*14 io_in[21]
*15 io_in[22]
*16 io_in[23]
*17 io_in[24]
*18 io_in[25]
*19 io_in[26]
*20 io_in[27]
*21 io_in[28]
*22 io_in[29]
*23 io_in[2]
*24 io_in[30]
*25 io_in[31]
*26 io_in[32]
*27 io_in[33]
*28 io_in[34]
*29 io_in[35]
*30 io_in[36]
*31 io_in[37]
*32 io_in[3]
*33 io_in[4]
*34 io_in[5]
*35 io_in[6]
*36 io_in[7]
*37 io_in[8]
*38 io_in[9]
*39 io_oeb[0]
*40 io_oeb[10]
*41 io_oeb[11]
*42 io_oeb[12]
*43 io_oeb[13]
*44 io_oeb[14]
*45 io_oeb[15]
*46 io_oeb[16]
*47 io_oeb[17]
*48 io_oeb[18]
*49 io_oeb[19]
*50 io_oeb[1]
*51 io_oeb[20]
*52 io_oeb[21]
*53 io_oeb[22]
*54 io_oeb[23]
*55 io_oeb[24]
*56 io_oeb[25]
*57 io_oeb[26]
*58 io_oeb[27]
*59 io_oeb[28]
*60 io_oeb[29]
*61 io_oeb[2]
*62 io_oeb[30]
*63 io_oeb[31]
*64 io_oeb[32]
*65 io_oeb[33]
*66 io_oeb[34]
*67 io_oeb[35]
*68 io_oeb[36]
*69 io_oeb[37]
*70 io_oeb[3]
*71 io_oeb[4]
*72 io_oeb[5]
*73 io_oeb[6]
*74 io_oeb[7]
*75 io_oeb[8]
*76 io_oeb[9]
*77 io_out[0]
*78 io_out[10]
*79 io_out[11]
*80 io_out[12]
*81 io_out[13]
*82 io_out[14]
*83 io_out[15]
*84 io_out[16]
*85 io_out[17]
*86 io_out[18]
*87 io_out[19]
*88 io_out[1]
*89 io_out[20]
*90 io_out[21]
*91 io_out[22]
*92 io_out[23]
*93 io_out[24]
*94 io_out[25]
*95 io_out[26]
*96 io_out[27]
*97 io_out[28]
*98 io_out[29]
*99 io_out[2]
*100 io_out[30]
*101 io_out[31]
*102 io_out[32]
*103 io_out[33]
*104 io_out[34]
*105 io_out[35]
*106 io_out[36]
*107 io_out[37]
*108 io_out[3]
*109 io_out[4]
*110 io_out[5]
*111 io_out[6]
*112 io_out[7]
*113 io_out[8]
*114 io_out[9]
*115 la_data_in[0]
*116 la_data_in[10]
*117 la_data_in[11]
*118 la_data_in[12]
*119 la_data_in[13]
*120 la_data_in[14]
*121 la_data_in[15]
*122 la_data_in[16]
*123 la_data_in[17]
*124 la_data_in[18]
*125 la_data_in[19]
*126 la_data_in[1]
*127 la_data_in[20]
*128 la_data_in[21]
*129 la_data_in[22]
*130 la_data_in[23]
*131 la_data_in[24]
*132 la_data_in[25]
*133 la_data_in[26]
*134 la_data_in[27]
*135 la_data_in[28]
*136 la_data_in[29]
*137 la_data_in[2]
*138 la_data_in[30]
*139 la_data_in[31]
*140 la_data_in[32]
*141 la_data_in[33]
*142 la_data_in[34]
*143 la_data_in[35]
*144 la_data_in[36]
*145 la_data_in[37]
*146 la_data_in[38]
*147 la_data_in[39]
*148 la_data_in[3]
*149 la_data_in[40]
*150 la_data_in[41]
*151 la_data_in[42]
*152 la_data_in[43]
*153 la_data_in[44]
*154 la_data_in[45]
*155 la_data_in[46]
*156 la_data_in[47]
*157 la_data_in[48]
*158 la_data_in[49]
*159 la_data_in[4]
*160 la_data_in[50]
*161 la_data_in[51]
*162 la_data_in[52]
*163 la_data_in[53]
*164 la_data_in[54]
*165 la_data_in[55]
*166 la_data_in[56]
*167 la_data_in[57]
*168 la_data_in[58]
*169 la_data_in[59]
*170 la_data_in[5]
*171 la_data_in[60]
*172 la_data_in[61]
*173 la_data_in[62]
*174 la_data_in[63]
*175 la_data_in[6]
*176 la_data_in[7]
*177 la_data_in[8]
*178 la_data_in[9]
*179 la_data_out[0]
*180 la_data_out[10]
*181 la_data_out[11]
*182 la_data_out[12]
*183 la_data_out[13]
*184 la_data_out[14]
*185 la_data_out[15]
*186 la_data_out[16]
*187 la_data_out[17]
*188 la_data_out[18]
*189 la_data_out[19]
*190 la_data_out[1]
*191 la_data_out[20]
*192 la_data_out[21]
*193 la_data_out[22]
*194 la_data_out[23]
*195 la_data_out[24]
*196 la_data_out[25]
*197 la_data_out[26]
*198 la_data_out[27]
*199 la_data_out[28]
*200 la_data_out[29]
*201 la_data_out[2]
*202 la_data_out[30]
*203 la_data_out[31]
*204 la_data_out[32]
*205 la_data_out[33]
*206 la_data_out[34]
*207 la_data_out[35]
*208 la_data_out[36]
*209 la_data_out[37]
*210 la_data_out[38]
*211 la_data_out[39]
*212 la_data_out[3]
*213 la_data_out[40]
*214 la_data_out[41]
*215 la_data_out[42]
*216 la_data_out[43]
*217 la_data_out[44]
*218 la_data_out[45]
*219 la_data_out[46]
*220 la_data_out[47]
*221 la_data_out[48]
*222 la_data_out[49]
*223 la_data_out[4]
*224 la_data_out[50]
*225 la_data_out[51]
*226 la_data_out[52]
*227 la_data_out[53]
*228 la_data_out[54]
*229 la_data_out[55]
*230 la_data_out[56]
*231 la_data_out[57]
*232 la_data_out[58]
*233 la_data_out[59]
*234 la_data_out[5]
*235 la_data_out[60]
*236 la_data_out[61]
*237 la_data_out[62]
*238 la_data_out[63]
*239 la_data_out[6]
*240 la_data_out[7]
*241 la_data_out[8]
*242 la_data_out[9]
*243 la_oenb[0]
*244 la_oenb[10]
*245 la_oenb[11]
*246 la_oenb[12]
*247 la_oenb[13]
*248 la_oenb[14]
*249 la_oenb[15]
*250 la_oenb[16]
*251 la_oenb[17]
*252 la_oenb[18]
*253 la_oenb[19]
*254 la_oenb[1]
*255 la_oenb[20]
*256 la_oenb[21]
*257 la_oenb[22]
*258 la_oenb[23]
*259 la_oenb[24]
*260 la_oenb[25]
*261 la_oenb[26]
*262 la_oenb[27]
*263 la_oenb[28]
*264 la_oenb[29]
*265 la_oenb[2]
*266 la_oenb[30]
*267 la_oenb[31]
*268 la_oenb[32]
*269 la_oenb[33]
*270 la_oenb[34]
*271 la_oenb[35]
*272 la_oenb[36]
*273 la_oenb[37]
*274 la_oenb[38]
*275 la_oenb[39]
*276 la_oenb[3]
*277 la_oenb[40]
*278 la_oenb[41]
*279 la_oenb[42]
*280 la_oenb[43]
*281 la_oenb[44]
*282 la_oenb[45]
*283 la_oenb[46]
*284 la_oenb[47]
*285 la_oenb[48]
*286 la_oenb[49]
*287 la_oenb[4]
*288 la_oenb[50]
*289 la_oenb[51]
*290 la_oenb[52]
*291 la_oenb[53]
*292 la_oenb[54]
*293 la_oenb[55]
*294 la_oenb[56]
*295 la_oenb[57]
*296 la_oenb[58]
*297 la_oenb[59]
*298 la_oenb[5]
*299 la_oenb[60]
*300 la_oenb[61]
*301 la_oenb[62]
*302 la_oenb[63]
*303 la_oenb[6]
*304 la_oenb[7]
*305 la_oenb[8]
*306 la_oenb[9]
*307 user_clock2
*308 user_irq[0]
*309 user_irq[1]
*310 user_irq[2]
*313 wb_clk_i
*314 wb_rst_i
*315 wbs_ack_o
*316 wbs_adr_i[0]
*317 wbs_adr_i[10]
*318 wbs_adr_i[11]
*319 wbs_adr_i[12]
*320 wbs_adr_i[13]
*321 wbs_adr_i[14]
*322 wbs_adr_i[15]
*323 wbs_adr_i[16]
*324 wbs_adr_i[17]
*325 wbs_adr_i[18]
*326 wbs_adr_i[19]
*327 wbs_adr_i[1]
*328 wbs_adr_i[20]
*329 wbs_adr_i[21]
*330 wbs_adr_i[22]
*331 wbs_adr_i[23]
*332 wbs_adr_i[24]
*333 wbs_adr_i[25]
*334 wbs_adr_i[26]
*335 wbs_adr_i[27]
*336 wbs_adr_i[28]
*337 wbs_adr_i[29]
*338 wbs_adr_i[2]
*339 wbs_adr_i[30]
*340 wbs_adr_i[31]
*341 wbs_adr_i[3]
*342 wbs_adr_i[4]
*343 wbs_adr_i[5]
*344 wbs_adr_i[6]
*345 wbs_adr_i[7]
*346 wbs_adr_i[8]
*347 wbs_adr_i[9]
*348 wbs_cyc_i
*349 wbs_dat_i[0]
*350 wbs_dat_i[10]
*351 wbs_dat_i[11]
*352 wbs_dat_i[12]
*353 wbs_dat_i[13]
*354 wbs_dat_i[14]
*355 wbs_dat_i[15]
*356 wbs_dat_i[16]
*357 wbs_dat_i[17]
*358 wbs_dat_i[18]
*359 wbs_dat_i[19]
*360 wbs_dat_i[1]
*361 wbs_dat_i[20]
*362 wbs_dat_i[21]
*363 wbs_dat_i[22]
*364 wbs_dat_i[23]
*365 wbs_dat_i[24]
*366 wbs_dat_i[25]
*367 wbs_dat_i[26]
*368 wbs_dat_i[27]
*369 wbs_dat_i[28]
*370 wbs_dat_i[29]
*371 wbs_dat_i[2]
*372 wbs_dat_i[30]
*373 wbs_dat_i[31]
*374 wbs_dat_i[3]
*375 wbs_dat_i[4]
*376 wbs_dat_i[5]
*377 wbs_dat_i[6]
*378 wbs_dat_i[7]
*379 wbs_dat_i[8]
*380 wbs_dat_i[9]
*381 wbs_dat_o[0]
*382 wbs_dat_o[10]
*383 wbs_dat_o[11]
*384 wbs_dat_o[12]
*385 wbs_dat_o[13]
*386 wbs_dat_o[14]
*387 wbs_dat_o[15]
*388 wbs_dat_o[16]
*389 wbs_dat_o[17]
*390 wbs_dat_o[18]
*391 wbs_dat_o[19]
*392 wbs_dat_o[1]
*393 wbs_dat_o[20]
*394 wbs_dat_o[21]
*395 wbs_dat_o[22]
*396 wbs_dat_o[23]
*397 wbs_dat_o[24]
*398 wbs_dat_o[25]
*399 wbs_dat_o[26]
*400 wbs_dat_o[27]
*401 wbs_dat_o[28]
*402 wbs_dat_o[29]
*403 wbs_dat_o[2]
*404 wbs_dat_o[30]
*405 wbs_dat_o[31]
*406 wbs_dat_o[3]
*407 wbs_dat_o[4]
*408 wbs_dat_o[5]
*409 wbs_dat_o[6]
*410 wbs_dat_o[7]
*411 wbs_dat_o[8]
*412 wbs_dat_o[9]
*413 wbs_sel_i[0]
*414 wbs_sel_i[1]
*415 wbs_sel_i[2]
*416 wbs_sel_i[3]
*417 wbs_stb_i
*418 wbs_we_i
*419 mprj

*PORTS
io_in[0] I
io_in[10] I
io_in[11] I
io_in[12] I
io_in[13] I
io_in[14] I
io_in[15] I
io_in[16] I
io_in[17] I
io_in[18] I
io_in[19] I
io_in[1] I
io_in[20] I
io_in[21] I
io_in[22] I
io_in[23] I
io_in[24] I
io_in[25] I
io_in[26] I
io_in[27] I
io_in[28] I
io_in[29] I
io_in[2] I
io_in[30] I
io_in[31] I
io_in[32] I
io_in[33] I
io_in[34] I
io_in[35] I
io_in[36] I
io_in[37] I
io_in[3] I
io_in[4] I
io_in[5] I
io_in[6] I
io_in[7] I
io_in[8] I
io_in[9] I
io_oeb[0] O
io_oeb[10] O
io_oeb[11] O
io_oeb[12] O
io_oeb[13] O
io_oeb[14] O
io_oeb[15] O
io_oeb[16] O
io_oeb[17] O
io_oeb[18] O
io_oeb[19] O
io_oeb[1] O
io_oeb[20] O
io_oeb[21] O
io_oeb[22] O
io_oeb[23] O
io_oeb[24] O
io_oeb[25] O
io_oeb[26] O
io_oeb[27] O
io_oeb[28] O
io_oeb[29] O
io_oeb[2] O
io_oeb[30] O
io_oeb[31] O
io_oeb[32] O
io_oeb[33] O
io_oeb[34] O
io_oeb[35] O
io_oeb[36] O
io_oeb[37] O
io_oeb[3] O
io_oeb[4] O
io_oeb[5] O
io_oeb[6] O
io_oeb[7] O
io_oeb[8] O
io_oeb[9] O
io_out[0] O
io_out[10] O
io_out[11] O
io_out[12] O
io_out[13] O
io_out[14] O
io_out[15] O
io_out[16] O
io_out[17] O
io_out[18] O
io_out[19] O
io_out[1] O
io_out[20] O
io_out[21] O
io_out[22] O
io_out[23] O
io_out[24] O
io_out[25] O
io_out[26] O
io_out[27] O
io_out[28] O
io_out[29] O
io_out[2] O
io_out[30] O
io_out[31] O
io_out[32] O
io_out[33] O
io_out[34] O
io_out[35] O
io_out[36] O
io_out[37] O
io_out[3] O
io_out[4] O
io_out[5] O
io_out[6] O
io_out[7] O
io_out[8] O
io_out[9] O
la_data_in[0] I
la_data_in[10] I
la_data_in[11] I
la_data_in[12] I
la_data_in[13] I
la_data_in[14] I
la_data_in[15] I
la_data_in[16] I
la_data_in[17] I
la_data_in[18] I
la_data_in[19] I
la_data_in[1] I
la_data_in[20] I
la_data_in[21] I
la_data_in[22] I
la_data_in[23] I
la_data_in[24] I
la_data_in[25] I
la_data_in[26] I
la_data_in[27] I
la_data_in[28] I
la_data_in[29] I
la_data_in[2] I
la_data_in[30] I
la_data_in[31] I
la_data_in[32] I
la_data_in[33] I
la_data_in[34] I
la_data_in[35] I
la_data_in[36] I
la_data_in[37] I
la_data_in[38] I
la_data_in[39] I
la_data_in[3] I
la_data_in[40] I
la_data_in[41] I
la_data_in[42] I
la_data_in[43] I
la_data_in[44] I
la_data_in[45] I
la_data_in[46] I
la_data_in[47] I
la_data_in[48] I
la_data_in[49] I
la_data_in[4] I
la_data_in[50] I
la_data_in[51] I
la_data_in[52] I
la_data_in[53] I
la_data_in[54] I
la_data_in[55] I
la_data_in[56] I
la_data_in[57] I
la_data_in[58] I
la_data_in[59] I
la_data_in[5] I
la_data_in[60] I
la_data_in[61] I
la_data_in[62] I
la_data_in[63] I
la_data_in[6] I
la_data_in[7] I
la_data_in[8] I
la_data_in[9] I
la_data_out[0] O
la_data_out[10] O
la_data_out[11] O
la_data_out[12] O
la_data_out[13] O
la_data_out[14] O
la_data_out[15] O
la_data_out[16] O
la_data_out[17] O
la_data_out[18] O
la_data_out[19] O
la_data_out[1] O
la_data_out[20] O
la_data_out[21] O
la_data_out[22] O
la_data_out[23] O
la_data_out[24] O
la_data_out[25] O
la_data_out[26] O
la_data_out[27] O
la_data_out[28] O
la_data_out[29] O
la_data_out[2] O
la_data_out[30] O
la_data_out[31] O
la_data_out[32] O
la_data_out[33] O
la_data_out[34] O
la_data_out[35] O
la_data_out[36] O
la_data_out[37] O
la_data_out[38] O
la_data_out[39] O
la_data_out[3] O
la_data_out[40] O
la_data_out[41] O
la_data_out[42] O
la_data_out[43] O
la_data_out[44] O
la_data_out[45] O
la_data_out[46] O
la_data_out[47] O
la_data_out[48] O
la_data_out[49] O
la_data_out[4] O
la_data_out[50] O
la_data_out[51] O
la_data_out[52] O
la_data_out[53] O
la_data_out[54] O
la_data_out[55] O
la_data_out[56] O
la_data_out[57] O
la_data_out[58] O
la_data_out[59] O
la_data_out[5] O
la_data_out[60] O
la_data_out[61] O
la_data_out[62] O
la_data_out[63] O
la_data_out[6] O
la_data_out[7] O
la_data_out[8] O
la_data_out[9] O
la_oenb[0] I
la_oenb[10] I
la_oenb[11] I
la_oenb[12] I
la_oenb[13] I
la_oenb[14] I
la_oenb[15] I
la_oenb[16] I
la_oenb[17] I
la_oenb[18] I
la_oenb[19] I
la_oenb[1] I
la_oenb[20] I
la_oenb[21] I
la_oenb[22] I
la_oenb[23] I
la_oenb[24] I
la_oenb[25] I
la_oenb[26] I
la_oenb[27] I
la_oenb[28] I
la_oenb[29] I
la_oenb[2] I
la_oenb[30] I
la_oenb[31] I
la_oenb[32] I
la_oenb[33] I
la_oenb[34] I
la_oenb[35] I
la_oenb[36] I
la_oenb[37] I
la_oenb[38] I
la_oenb[39] I
la_oenb[3] I
la_oenb[40] I
la_oenb[41] I
la_oenb[42] I
la_oenb[43] I
la_oenb[44] I
la_oenb[45] I
la_oenb[46] I
la_oenb[47] I
la_oenb[48] I
la_oenb[49] I
la_oenb[4] I
la_oenb[50] I
la_oenb[51] I
la_oenb[52] I
la_oenb[53] I
la_oenb[54] I
la_oenb[55] I
la_oenb[56] I
la_oenb[57] I
la_oenb[58] I
la_oenb[59] I
la_oenb[5] I
la_oenb[60] I
la_oenb[61] I
la_oenb[62] I
la_oenb[63] I
la_oenb[6] I
la_oenb[7] I
la_oenb[8] I
la_oenb[9] I
user_clock2 I
user_irq[0] O
user_irq[1] O
user_irq[2] O
wb_clk_i I
wb_rst_i I
wbs_ack_o O
wbs_adr_i[0] I
wbs_adr_i[10] I
wbs_adr_i[11] I
wbs_adr_i[12] I
wbs_adr_i[13] I
wbs_adr_i[14] I
wbs_adr_i[15] I
wbs_adr_i[16] I
wbs_adr_i[17] I
wbs_adr_i[18] I
wbs_adr_i[19] I
wbs_adr_i[1] I
wbs_adr_i[20] I
wbs_adr_i[21] I
wbs_adr_i[22] I
wbs_adr_i[23] I
wbs_adr_i[24] I
wbs_adr_i[25] I
wbs_adr_i[26] I
wbs_adr_i[27] I
wbs_adr_i[28] I
wbs_adr_i[29] I
wbs_adr_i[2] I
wbs_adr_i[30] I
wbs_adr_i[31] I
wbs_adr_i[3] I
wbs_adr_i[4] I
wbs_adr_i[5] I
wbs_adr_i[6] I
wbs_adr_i[7] I
wbs_adr_i[8] I
wbs_adr_i[9] I
wbs_cyc_i I
wbs_dat_i[0] I
wbs_dat_i[10] I
wbs_dat_i[11] I
wbs_dat_i[12] I
wbs_dat_i[13] I
wbs_dat_i[14] I
wbs_dat_i[15] I
wbs_dat_i[16] I
wbs_dat_i[17] I
wbs_dat_i[18] I
wbs_dat_i[19] I
wbs_dat_i[1] I
wbs_dat_i[20] I
wbs_dat_i[21] I
wbs_dat_i[22] I
wbs_dat_i[23] I
wbs_dat_i[24] I
wbs_dat_i[25] I
wbs_dat_i[26] I
wbs_dat_i[27] I
wbs_dat_i[28] I
wbs_dat_i[29] I
wbs_dat_i[2] I
wbs_dat_i[30] I
wbs_dat_i[31] I
wbs_dat_i[3] I
wbs_dat_i[4] I
wbs_dat_i[5] I
wbs_dat_i[6] I
wbs_dat_i[7] I
wbs_dat_i[8] I
wbs_dat_i[9] I
wbs_dat_o[0] O
wbs_dat_o[10] O
wbs_dat_o[11] O
wbs_dat_o[12] O
wbs_dat_o[13] O
wbs_dat_o[14] O
wbs_dat_o[15] O
wbs_dat_o[16] O
wbs_dat_o[17] O
wbs_dat_o[18] O
wbs_dat_o[19] O
wbs_dat_o[1] O
wbs_dat_o[20] O
wbs_dat_o[21] O
wbs_dat_o[22] O
wbs_dat_o[23] O
wbs_dat_o[24] O
wbs_dat_o[25] O
wbs_dat_o[26] O
wbs_dat_o[27] O
wbs_dat_o[28] O
wbs_dat_o[29] O
wbs_dat_o[2] O
wbs_dat_o[30] O
wbs_dat_o[31] O
wbs_dat_o[3] O
wbs_dat_o[4] O
wbs_dat_o[5] O
wbs_dat_o[6] O
wbs_dat_o[7] O
wbs_dat_o[8] O
wbs_dat_o[9] O
wbs_sel_i[0] I
wbs_sel_i[1] I
wbs_sel_i[2] I
wbs_sel_i[3] I
wbs_stb_i I
wbs_we_i I

*D_NET *115 0.208729
*CONN
*P la_data_in[0] I
*I *419:la_data_in[0] I *D user_proj_example
*CAP
1 la_data_in[0] 0.0124305
2 *419:la_data_in[0] 0.000945588
3 *115:13 0.0126188
4 *115:11 0.0116732
5 *115:9 0.0122609
6 *115:7 0.0122609
7 *115:5 0.0124305
8 *419:la_data_in[0] *419:la_oenb[0] 0.0016202
9 *419:la_data_in[0] *179:13 0.000133909
10 *419:la_data_in[0] *190:11 0
11 *419:la_data_in[0] *342:27 0.00042005
12 *419:la_data_in[0] *400:15 1.28017e-05
13 *419:la_data_in[0] *405:15 8.4108e-05
14 *419:la_data_in[0] *408:19 1.17231e-05
15 *419:la_data_in[0] *410:15 0.000128928
16 *115:9 *119:9 0.0912079
17 *115:9 *154:9 0
18 *115:9 *352:9 0.0341527
19 *115:13 *419:wbs_adr_i[28] 0.00391456
20 *115:13 *335:29 0.00242151
*RES
1 la_data_in[0] *115:5 75.886 
2 *115:5 *115:7 4.5 
3 *115:7 *115:9 235.524 
4 *115:9 *115:11 4.5 
5 *115:11 *115:13 68.5167 
6 *115:13 *419:la_data_in[0] 24.5393 
*END

*D_NET *116 0.305801
*CONN
*P la_data_in[10] I
*I *419:la_data_in[10] I *D user_proj_example
*CAP
1 la_data_in[10] 0.0129196
2 *419:la_data_in[10] 0.000345493
3 *116:13 0.00392046
4 *116:11 0.00357497
5 *116:9 0.00514245
6 *116:7 0.00514245
7 *116:5 0.0129196
8 *419:la_data_in[10] wbs_dat_o[3] 1.3343e-05
9 *419:la_data_in[10] *419:la_data_in[9] 3.55514e-06
10 *419:la_data_in[10] *419:la_oenb[11] 0
11 *419:la_data_in[10] *419:la_oenb[9] 6.64505e-05
12 *419:la_data_in[10] *180:13 6.64505e-05
13 *419:la_data_in[10] *378:9 0.000833814
14 *419:la_data_in[10] *394:35 0.00084843
15 *116:9 *120:9 0.122943
16 *116:9 *137:9 0.0980176
17 *116:9 *230:17 0
18 *116:13 *117:13 0
19 *116:13 *118:13 0.0309346
20 *116:13 *181:11 0.00118437
21 *116:13 *182:15 0.00692472
*RES
1 la_data_in[10] *116:5 80.294 
2 *116:5 *116:7 4.5 
3 *116:7 *116:9 298.756 
4 *116:9 *116:11 4.5 
5 *116:11 *116:13 78.66 
6 *116:13 *419:la_data_in[10] 13.066 
*END

*D_NET *117 0.238819
*CONN
*P la_data_in[11] I
*I *419:la_data_in[11] I *D user_proj_example
*CAP
1 la_data_in[11] 0.0124294
2 *419:la_data_in[11] 7.76289e-06
3 *117:13 0.00427703
4 *117:11 0.00426927
5 *117:9 0.0187241
6 *117:7 0.0187241
7 *117:5 0.0124294
8 *419:la_data_in[11] *419:la_oenb[10] 6.64505e-05
9 *419:la_data_in[11] *181:9 6.64505e-05
10 *117:9 *121:9 0.124968
11 *117:9 *350:21 0.00189314
12 *117:9 *380:29 0.0183715
13 *117:13 *178:15 0
14 *117:13 *181:11 0.0134477
15 *117:13 *244:23 0.00914453
16 *117:13 *245:27 0
17 *116:13 *117:13 0
*RES
1 la_data_in[11] *117:5 77.71 
2 *117:5 *117:7 4.5 
3 *117:7 *117:9 307.572 
4 *117:9 *117:11 4.5 
5 *117:11 *117:13 74.404 
6 *117:13 *419:la_data_in[11] 9.342 
*END

*D_NET *118 0.289771
*CONN
*P la_data_in[12] I
*I *419:la_data_in[12] I *D user_proj_example
*CAP
1 la_data_in[12] 0.0132795
2 *419:la_data_in[12] 7.48001e-05
3 *118:13 0.00290288
4 *118:11 0.00282808
5 *118:9 0.0124972
6 *118:7 0.0124972
7 *118:5 0.0132795
8 *419:la_data_in[12] wbs_dat_o[5] 0.000148468
9 *419:la_data_in[12] *419:la_oenb[11] 8.55458e-05
10 *419:la_data_in[12] *182:13 0.000140555
11 *118:9 *122:9 0.128857
12 *118:9 *172:9 0
13 *118:9 *363:9 0.060608
14 *118:13 *419:la_oenb[13] 9.93758e-07
15 *118:13 *119:13 0.00214679
16 *118:13 *246:21 0.00948963
17 *116:13 *118:13 0.0309346
*RES
1 la_data_in[12] *118:5 82.574 
2 *118:5 *118:7 4.5 
3 *118:7 *118:9 314.108 
4 *118:9 *118:11 4.5 
5 *118:11 *118:13 79.42 
6 *118:13 *419:la_data_in[12] 9.874 
*END

*D_NET *119 0.291204
*CONN
*P la_data_in[13] I
*I *419:la_data_in[13] I *D user_proj_example
*CAP
1 la_data_in[13] 0.0120488
2 *419:la_data_in[13] 7.76289e-06
3 *119:13 0.00468148
4 *119:11 0.00467372
5 *119:9 0.008171
6 *119:7 0.008171
7 *119:5 0.0120488
8 *419:la_data_in[13] *419:la_oenb[12] 6.64505e-05
9 *419:la_data_in[13] *183:13 6.64505e-05
10 *119:9 *123:9 0.131362
11 *119:9 *154:9 0
12 *119:13 *419:la_oenb[13] 0.00296963
13 *119:13 *120:13 0
14 *119:13 *183:15 0.00146162
15 *119:13 *184:17 0.00229248
16 *119:13 *246:21 0.00948267
17 *119:13 *248:23 0.000345397
18 *115:9 *119:9 0.0912079
19 *118:13 *119:13 0.00214679
*RES
1 la_data_in[13] *119:5 75.734 
2 *119:5 *119:7 4.5 
3 *119:7 *119:9 321.252 
4 *119:9 *119:11 4.5 
5 *119:11 *119:13 72.428 
6 *119:13 *419:la_data_in[13] 9.342 
*END

*D_NET *120 0.321822
*CONN
*P la_data_in[14] I
*I *419:la_data_in[14] I *D user_proj_example
*CAP
1 la_data_in[14] 0.0127927
2 *419:la_data_in[14] 0.000121214
3 *120:13 0.00686445
4 *120:11 0.00674324
5 *120:9 0.00369674
6 *120:7 0.00369674
7 *120:5 0.0127927
8 *419:la_data_in[14] wbs_dat_o[5] 9.52854e-05
9 *419:la_data_in[14] *419:la_data_in[15] 3.77294e-06
10 *419:la_data_in[14] *419:la_oenb[13] 7.96598e-05
11 *419:la_data_in[14] *419:la_oenb[14] 4.99565e-05
12 *419:la_data_in[14] *183:13 1.03953e-05
13 *419:la_data_in[14] *184:13 7.01429e-05
14 *120:9 *230:17 0
15 *120:9 *260:9 0.13145
16 *120:13 *419:la_oenb[14] 0.00946807
17 *120:13 *122:13 0
18 *120:13 *183:15 8.06531e-06
19 *120:13 *185:11 0.00201745
20 *120:13 *248:23 0.00891886
21 *116:9 *120:9 0.122943
22 *119:13 *120:13 0
*RES
1 la_data_in[14] *120:5 80.142 
2 *120:5 *120:7 4.5 
3 *120:7 *120:9 327.788 
4 *120:9 *120:11 4.5 
5 *120:11 *120:13 77.292 
6 *120:13 *419:la_data_in[14] 10.254 
*END

*D_NET *121 0.326467
*CONN
*P la_data_in[15] I
*I *419:la_data_in[15] I *D user_proj_example
*CAP
1 la_data_in[15] 0.0123073
2 *419:la_data_in[15] 0.00024767
3 *121:13 0.00341724
4 *121:11 0.00316957
5 *121:9 0.00327103
6 *121:7 0.00327103
7 *121:5 0.0123073
8 *419:la_data_in[15] wbs_dat_o[5] 0.000348032
9 *419:la_data_in[15] *419:la_oenb[14] 9.40703e-05
10 *419:la_data_in[15] *185:9 6.64505e-05
11 *419:la_data_in[15] *187:13 0.000276717
12 *419:la_data_in[15] *342:27 1.32492e-05
13 *121:9 *128:9 0.136367
14 *121:9 *352:9 0
15 *121:13 *122:13 0
16 *121:13 *123:13 0.0138261
17 *121:13 *187:15 2.19372e-06
18 *121:13 *251:21 0.0125105
19 *419:la_data_in[14] *419:la_data_in[15] 3.77294e-06
20 *117:9 *121:9 0.124968
*RES
1 la_data_in[15] *121:5 77.558 
2 *121:5 *121:7 4.5 
3 *121:7 *121:9 332.804 
4 *121:9 *121:11 4.5 
5 *121:11 *121:13 74.556 
6 *121:13 *419:la_data_in[15] 11.926 
*END

*D_NET *122 0.330964
*CONN
*P la_data_in[16] I
*I *419:la_data_in[16] I *D user_proj_example
*CAP
1 la_data_in[16] 0.0131368
2 *419:la_data_in[16] 7.76289e-06
3 *122:13 0.0059212
4 *122:11 0.00591343
5 *122:9 0.00348307
6 *122:7 0.00348307
7 *122:5 0.0131368
8 *419:la_data_in[16] *419:la_oenb[15] 6.64505e-05
9 *419:la_data_in[16] *186:17 6.64505e-05
10 *122:9 *131:9 0.138305
11 *122:9 *172:9 0
12 *122:13 *123:13 0.0001727
13 *122:13 *185:11 0.00180706
14 *122:13 *186:19 0.00115366
15 *122:13 *187:15 0.00656347
16 *122:13 *249:23 0.00754617
17 *122:13 *342:27 0.00134396
18 *118:9 *122:9 0.128857
19 *120:13 *122:13 0
20 *121:13 *122:13 0
*RES
1 la_data_in[16] *122:5 82.422 
2 *122:5 *122:7 4.5 
3 *122:7 *122:9 341.772 
4 *122:9 *122:11 4.5 
5 *122:11 *122:13 79.116 
6 *122:13 *419:la_data_in[16] 9.342 
*END

*D_NET *123 0.347729
*CONN
*P la_data_in[17] I
*I *419:la_data_in[17] I *D user_proj_example
*CAP
1 la_data_in[17] 0.0119374
2 *419:la_data_in[17] 1.25386e-05
3 *123:13 0.00191852
4 *123:11 0.00190598
5 *123:9 0.00338085
6 *123:7 0.00338085
7 *123:5 0.0119374
8 *419:la_data_in[17] *419:la_oenb[16] 5.98851e-05
9 *419:la_data_in[17] *187:13 6.64505e-05
10 *123:9 *129:9 0.142336
11 *123:9 *154:9 0
12 *123:13 *186:17 0.00147373
13 *123:13 *186:19 0.0239593
14 *119:9 *123:9 0.131362
15 *121:13 *123:13 0.0138261
16 *122:13 *123:13 0.0001727
*RES
1 la_data_in[17] *123:5 75.582 
2 *123:5 *123:7 4.5 
3 *123:7 *123:9 348.612 
4 *123:9 *123:11 4.5 
5 *123:11 *123:13 72.276 
6 *123:13 *419:la_data_in[17] 9.342 
*END

*D_NET *124 0.345592
*CONN
*P la_data_in[18] I
*I *419:la_data_in[18] I *D user_proj_example
*CAP
1 la_data_in[18] 0.00993509
2 *419:la_data_in[18] 7.76289e-06
3 *124:13 0.0034023
4 *124:11 0.00339454
5 *124:9 0.00301067
6 *124:7 0.00301067
7 *124:5 0.00993509
8 *419:la_data_in[18] *419:la_oenb[17] 6.64505e-05
9 *419:la_data_in[18] *188:13 6.64505e-05
10 *124:9 *130:9 0.144479
11 *124:9 *143:17 0.0163446
12 *124:9 *183:19 0.131309
13 *124:9 *194:15 0.00302836
14 *124:9 *347:29 0
15 *124:13 *419:la_oenb[19] 0.00272458
16 *124:13 *125:13 0
17 *124:13 *247:21 0.00336469
18 *124:13 *251:21 0.0115125
*RES
1 la_data_in[18] *124:5 63.878 
2 *124:5 *124:7 4.5 
3 *124:7 *124:9 355.452 
4 *124:9 *124:11 4.5 
5 *124:11 *124:13 60.572 
6 *124:13 *419:la_data_in[18] 9.342 
*END

*D_NET *125 0.369099
*CONN
*P la_data_in[19] I
*I *419:la_data_in[19] I *D user_proj_example
*CAP
1 la_data_in[19] 0.0102926
2 *419:la_data_in[19] 7.19146e-05
3 *125:13 0.00191444
4 *125:11 0.00184253
5 *125:9 0.00352604
6 *125:7 0.00352604
7 *125:5 0.0102926
8 *419:la_data_in[19] *419:la_oenb[18] 9.72239e-05
9 *419:la_data_in[19] *188:13 2.65866e-05
10 *419:la_data_in[19] *189:11 6.64505e-05
11 *419:la_data_in[19] *375:19 2.47642e-05
12 *125:9 *127:9 0.148284
13 *125:9 *185:15 0.137424
14 *125:9 *207:15 0.0169591
15 *125:13 *188:15 0.0226702
16 *125:13 *189:13 0.0119284
17 *125:13 *247:21 0.000152782
18 *125:13 *251:21 0
19 *124:13 *125:13 0
*RES
1 la_data_in[19] *125:5 66.158 
2 *125:5 *125:7 4.5 
3 *125:7 *125:9 361.988 
4 *125:9 *125:11 4.5 
5 *125:11 *125:13 62.852 
6 *125:13 *419:la_data_in[19] 9.798 
*END

*D_NET *126 0.228977
*CONN
*P la_data_in[1] I
*I *419:la_data_in[1] I *D user_proj_example
*CAP
1 la_data_in[1] 0.0103149
2 *419:la_data_in[1] 0.000325066
3 *126:13 0.00135291
4 *126:11 0.00102785
5 *126:9 0.00459587
6 *126:7 0.00459587
7 *126:5 0.0103149
8 *419:la_data_in[1] *419:la_data_in[2] 1.76703e-05
9 *419:la_data_in[1] *419:la_oenb[0] 6.64505e-05
10 *419:la_data_in[1] *179:13 3.62682e-05
11 *419:la_data_in[1] *190:9 6.64505e-05
12 *419:la_data_in[1] *378:9 0.000398288
13 *419:la_data_in[1] *394:35 0.000412903
14 *419:la_data_in[1] *405:15 0
15 *126:9 *143:17 0.00670101
16 *126:9 *183:19 0.0933908
17 *126:9 *194:15 0.0249138
18 *126:9 *226:21 0.000420861
19 *126:9 *253:19 0.0178963
20 *126:9 *334:25 0.00379502
21 *126:13 *137:13 0.000184545
22 *126:13 *179:15 0.0236119
23 *126:13 *201:13 0.0245372
24 *126:13 *408:19 0
*RES
1 la_data_in[1] *126:5 64.182 
2 *126:5 *126:7 4.5 
3 *126:7 *126:9 238.26 
4 *126:9 *126:11 4.5 
5 *126:11 *126:13 62.548 
6 *126:13 *419:la_data_in[1] 12.002 
*END

*D_NET *127 0.380221
*CONN
*P la_data_in[20] I
*I *419:la_data_in[20] I *D user_proj_example
*CAP
1 la_data_in[20] 0.0102451
2 *419:la_data_in[20] 0.000178361
3 *127:13 0.00195455
4 *127:11 0.00177619
5 *127:9 0.00239086
6 *127:7 0.00239086
7 *127:5 0.0102451
8 *419:la_data_in[20] wbs_dat_o[5] 8.73935e-05
9 *419:la_data_in[20] *419:la_oenb[19] 0.000142072
10 *419:la_data_in[20] *191:13 6.64505e-05
11 *419:la_data_in[20] *368:37 0.000342528
12 *127:9 *194:15 0
13 *127:9 *197:21 0.149004
14 *127:9 *207:15 0.0168758
15 *127:9 *227:17 0.000369991
16 *127:9 *334:25 0
17 *127:13 *128:13 0.000852796
18 *127:13 *192:11 0.0100286
19 *127:13 *193:13 1.62957e-05
20 *127:13 *256:29 0.0249701
21 *125:9 *127:9 0.148284
*RES
1 la_data_in[20] *127:5 66.006 
2 *127:5 *127:7 4.5 
3 *127:7 *127:9 367.612 
4 *127:9 *127:11 4.5 
5 *127:11 *127:13 62.852 
6 *127:13 *419:la_data_in[20] 11.166 
*END

*D_NET *128 0.352543
*CONN
*P la_data_in[21] I
*I *419:la_data_in[21] I *D user_proj_example
*CAP
1 la_data_in[21] 0.0121113
2 *419:la_data_in[21] 7.76289e-06
3 *128:13 0.00505552
4 *128:11 0.00504775
5 *128:9 0.00490517
6 *128:7 0.00490517
7 *128:5 0.0121113
8 *419:la_data_in[21] *419:la_oenb[20] 6.64505e-05
9 *419:la_data_in[21] *192:9 6.64505e-05
10 *128:9 *138:9 0.151405
11 *128:9 *352:9 0
12 *128:13 *129:13 0
13 *128:13 *192:11 0.0100364
14 *128:13 *252:21 0
15 *128:13 *255:23 0.00904737
16 *128:13 *256:29 0.000556507
17 *121:9 *128:9 0.136367
18 *127:13 *128:13 0.000852796
*RES
1 la_data_in[21] *128:5 77.406 
2 *128:5 *128:7 4.5 
3 *128:7 *128:9 375.972 
4 *128:9 *128:11 4.5 
5 *128:11 *128:13 74.1 
6 *128:13 *419:la_data_in[21] 9.342 
*END

*D_NET *129 0.373125
*CONN
*P la_data_in[22] I
*I *419:la_data_in[22] I *D user_proj_example
*CAP
1 la_data_in[22] 0.011774
2 *419:la_data_in[22] 4.85105e-05
3 *129:13 0.00322704
4 *129:11 0.00317853
5 *129:9 0.00398957
6 *129:7 0.00398957
7 *129:5 0.011774
8 *419:la_data_in[22] *419:la_oenb[21] 6.64505e-05
9 *419:la_data_in[22] *193:11 6.64505e-05
10 *129:9 *132:9 0.156634
11 *129:9 *134:9 2.08264e-05
12 *129:13 *193:13 0.0277525
13 *129:13 *256:29 9.19885e-05
14 *129:13 *257:27 0.00817606
15 *123:9 *129:9 0.142336
16 *128:13 *129:13 0
*RES
1 la_data_in[22] *129:5 75.43 
2 *129:5 *129:7 4.5 
3 *129:7 *129:9 382.66 
4 *129:9 *129:11 4.5 
5 *129:11 *129:13 72.124 
6 *129:13 *419:la_data_in[22] 9.57 
*END

*D_NET *130 0.305177
*CONN
*P la_data_in[23] I
*I *419:la_data_in[23] I *D user_proj_example
*CAP
1 la_data_in[23] 0.00984064
2 *419:la_data_in[23] 7.76289e-06
3 *130:13 0.00214855
4 *130:11 0.00214079
5 *130:9 0.00577491
6 *130:7 0.00577491
7 *130:5 0.00984064
8 *419:la_data_in[23] *419:la_oenb[22] 6.64505e-05
9 *419:la_data_in[23] *194:9 6.64505e-05
10 *130:9 *194:15 0.00143936
11 *130:9 *203:21 0.0725996
12 *130:9 *209:17 0.0183227
13 *130:9 *262:29 0.00984125
14 *130:9 *347:29 0
15 *130:13 *194:11 0.0114133
16 *130:13 *257:27 0.0114211
17 *124:9 *130:9 0.144479
*RES
1 la_data_in[23] *130:5 63.726 
2 *130:5 *130:7 4.5 
3 *130:7 *130:9 389.652 
4 *130:9 *130:11 4.5 
5 *130:11 *130:13 60.42 
6 *130:13 *419:la_data_in[23] 9.342 
*END

*D_NET *131 0.370156
*CONN
*P la_data_in[24] I
*I *419:la_data_in[24] I *D user_proj_example
*CAP
1 la_data_in[24] 0.0128838
2 *419:la_data_in[24] 0.000103534
3 *131:13 0.00681
4 *131:11 0.00670647
5 *131:9 0.00546316
6 *131:7 0.00546316
7 *131:5 0.0128838
8 *419:la_data_in[24] wbs_dat_o[5] 0.000332487
9 *419:la_data_in[24] *419:la_oenb[23] 9.40703e-05
10 *419:la_data_in[24] *195:15 0.000143984
11 *419:la_data_in[24] *368:37 0.000309789
12 *131:9 *135:9 0.162738
13 *131:13 *194:11 0
14 *131:13 *195:19 5.43529e-06
15 *131:13 *196:11 0.0068886
16 *131:13 *253:25 0
17 *131:13 *258:33 0.00779467
18 *131:13 *260:13 0.00126733
19 *131:13 *343:19 0.00064943
20 *131:13 *388:23 0.00131393
21 *122:9 *131:9 0.138305
*RES
1 la_data_in[24] *131:5 82.27 
2 *131:5 *131:7 4.5 
3 *131:7 *131:9 395.732 
4 *131:9 *131:11 4.5 
5 *131:11 *131:13 79.42 
6 *131:13 *419:la_data_in[24] 10.634 
*END

*D_NET *132 0.402119
*CONN
*P la_data_in[25] I
*I *419:la_data_in[25] I *D user_proj_example
*CAP
1 la_data_in[25] 0.0116953
2 *419:la_data_in[25] 0.00021859
3 *132:13 0.00215512
4 *132:11 0.00193653
5 *132:9 0.00273736
6 *132:7 0.00273736
7 *132:5 0.0116953
8 *419:la_data_in[25] *419:la_data_in[26] 7.15455e-06
9 *419:la_data_in[25] *419:la_oenb[24] 6.64505e-05
10 *419:la_data_in[25] *195:15 3.10703e-05
11 *419:la_data_in[25] *196:9 6.64505e-05
12 *419:la_data_in[25] *343:19 0.000488888
13 *419:la_data_in[25] *378:9 0.00069762
14 *419:la_data_in[25] *394:35 0.000712243
15 *132:9 *134:9 0.16619
16 *132:13 *134:13 0.0285703
17 *132:13 *198:15 1.59772e-05
18 *132:13 *260:13 0
19 *132:13 *261:13 0.012291
20 *132:13 *396:27 0.00317277
21 *129:9 *132:9 0.156634
*RES
1 la_data_in[25] *132:5 75.278 
2 *132:5 *132:7 4.5 
3 *132:7 *132:9 401.66 
4 *132:9 *132:11 4.5 
5 *132:11 *132:13 73.644 
6 *132:13 *419:la_data_in[25] 12.762 
*END

*D_NET *133 0.414291
*CONN
*P la_data_in[26] I
*I *419:la_data_in[26] I *D user_proj_example
*CAP
1 la_data_in[26] 0.0124298
2 *419:la_data_in[26] 0.000204555
3 *133:13 0.00278395
4 *133:11 0.00257939
5 *133:9 0.00119416
6 *133:7 0.00119416
7 *133:5 0.0124298
8 *419:la_data_in[26] wbs_dat_o[5] 0.000311786
9 *419:la_data_in[26] *419:la_oenb[25] 6.64505e-05
10 *419:la_data_in[26] *197:15 0.00020749
11 *419:la_data_in[26] *343:19 2.04627e-05
12 *419:la_data_in[26] *377:25 0.000143854
13 *133:9 *260:9 0.168315
14 *133:9 *261:9 0.169385
15 *133:13 *135:13 0.00150109
16 *133:13 *260:13 0
17 *133:13 *261:13 0.0302633
18 *133:13 *262:35 0.0111025
19 *133:13 *376:19 5.73417e-05
20 *133:13 *396:27 9.39236e-05
21 *419:la_data_in[25] *419:la_data_in[26] 7.15455e-06
*RES
1 la_data_in[26] *133:5 79.838 
2 *133:5 *133:7 4.5 
3 *133:7 *133:9 408.956 
4 *133:9 *133:11 4.5 
5 *133:11 *133:13 77.292 
6 *133:13 *419:la_data_in[26] 11.47 
*END

*D_NET *134 0.411416
*CONN
*P la_data_in[27] I