* NGSPICE file created from TOP.ext - technology: gf180mcuD

.subckt TOP VSS IB VINN VDD VINP OUT
X0 VSS.t49 a_8360_n43060.t15 OUT.t37 VSS.t48 nfet_06v0 ad=0.78p pd=3.52u as=0.78p ps=3.52u w=3u l=0.6u
X1 a_16582_n43566.t1 a_n1924_n43526.t4 a_8360_n43060.t2 VSS.t6 nfet_06v0 ad=0.78p pd=3.52u as=2.19p ps=7.46u w=3u l=0.6u
X2 w_1750_n43456.t42 VINP.t0 a_8360_n43060.t4 w_1750_n43456.t41 pfet_06v0 ad=0.728p pd=3.32u as=0.728p ps=3.32u w=2.8u l=0.56u
X3 w_1750_n43456.t45 VINN.t0 a_2044_n43060.t21 w_1750_n43456.t44 pfet_06v0 ad=0.728p pd=3.32u as=0.728p ps=3.32u w=2.8u l=0.56u
X4 VSS.t47 a_8360_n43060.t16 OUT.t36 VSS.t46 nfet_06v0 ad=0.78p pd=3.52u as=0.78p ps=3.52u w=3u l=0.6u
X5 a_8360_n43060.t5 VINP.t1 w_1750_n43456.t40 w_1750_n43456.t39 pfet_06v0 ad=0.728p pd=3.32u as=0.728p ps=3.32u w=2.8u l=0.56u
X6 OUT.t6 IB.t4 VDD.t55 VDD.t54 pfet_06v0 ad=0.728p pd=3.32u as=0.728p ps=3.32u w=2.8u l=0.56u
X7 a_2044_n43060.t1 a_2044_n43060.t0 VSS.t8 VSS.t7 nfet_06v0 ad=2.19p pd=7.46u as=2.19p ps=7.46u w=3u l=0.6u
X8 a_8360_n43060.t3 a_n1924_n43526.t5 a_16582_n43566.t0 VSS.t9 nfet_06v0 ad=2.19p pd=7.46u as=0.78p ps=3.52u w=3u l=0.6u
X9 VDD.t53 IB.t2 IB.t3 VDD.t52 pfet_06v0 ad=0.728p pd=3.32u as=2.156p ps=7.14u w=2.8u l=0.56u
X10 OUT.t40 a_16582_n43566.t2 cap_mim_2f0_m4m5_noshield c_width=50u c_length=10u
X11 w_1750_n43456.t47 VINN.t1 a_2044_n43060.t20 w_1750_n43456.t46 pfet_06v0 ad=0.728p pd=3.32u as=0.728p ps=3.32u w=2.8u l=0.56u
X12 OUT.t35 a_8360_n43060.t17 VSS.t45 VSS.t44 nfet_06v0 ad=0.78p pd=3.52u as=0.78p ps=3.52u w=3u l=0.6u
X13 VSS.t43 a_8360_n43060.t18 OUT.t34 VSS.t42 nfet_06v0 ad=0.78p pd=3.52u as=0.78p ps=3.52u w=3u l=0.6u
X14 OUT.t33 a_8360_n43060.t19 VSS.t41 VSS.t40 nfet_06v0 ad=0.78p pd=3.52u as=2.19p ps=7.46u w=3u l=0.6u
X15 a_8360_n43060.t6 VINP.t2 w_1750_n43456.t38 w_1750_n43456.t37 pfet_06v0 ad=0.728p pd=3.32u as=0.728p ps=3.32u w=2.8u l=0.56u
X16 VSS.t39 a_8360_n43060.t20 OUT.t32 VSS.t38 nfet_06v0 ad=0.78p pd=3.52u as=0.78p ps=3.52u w=3u l=0.6u
X17 OUT.t31 a_8360_n43060.t21 VSS.t37 VSS.t36 nfet_06v0 ad=0.78p pd=3.52u as=0.78p ps=3.52u w=3u l=0.6u
X18 a_8360_n43060.t7 VINP.t3 w_1750_n43456.t36 w_1750_n43456.t35 pfet_06v0 ad=0.728p pd=3.32u as=0.728p ps=3.32u w=2.8u l=0.56u
X19 OUT.t30 a_8360_n43060.t22 VSS.t35 VSS.t34 nfet_06v0 ad=0.78p pd=3.52u as=0.78p ps=3.52u w=3u l=0.6u
X20 a_2044_n43060.t19 VINN.t2 w_1750_n43456.t49 w_1750_n43456.t48 pfet_06v0 ad=0.728p pd=3.32u as=0.728p ps=3.32u w=2.8u l=0.56u
X21 OUT.t8 IB.t5 VDD.t51 VDD.t50 pfet_06v0 ad=0.728p pd=3.32u as=0.728p ps=3.32u w=2.8u l=0.56u
X22 VSS.t33 a_8360_n43060.t23 OUT.t29 VSS.t32 nfet_06v0 ad=0.78p pd=3.52u as=0.78p ps=3.52u w=3u l=0.6u
X23 OUT.t28 a_8360_n43060.t24 VSS.t31 VSS.t30 nfet_06v0 ad=0.78p pd=3.52u as=0.78p ps=3.52u w=3u l=0.6u
X24 VSS.t29 a_8360_n43060.t25 OUT.t27 VSS.t28 nfet_06v0 ad=0.78p pd=3.52u as=0.78p ps=3.52u w=3u l=0.6u
X25 VDD.t45 IB.t6 w_1750_n43456.t0 VDD.t44 pfet_06v0 ad=0.728p pd=3.32u as=0.728p ps=3.32u w=2.8u l=0.56u
X26 a_2044_n43060.t18 VINN.t3 w_1750_n43456.t51 w_1750_n43456.t50 pfet_06v0 ad=0.728p pd=3.32u as=0.728p ps=3.32u w=2.8u l=0.56u
X27 VDD.t49 IB.t7 OUT.t38 VDD.t48 pfet_06v0 ad=0.728p pd=3.32u as=0.728p ps=3.32u w=2.8u l=0.56u
X28 w_1750_n43456.t34 VINP.t4 a_8360_n43060.t8 w_1750_n43456.t33 pfet_06v0 ad=0.728p pd=3.32u as=0.728p ps=3.32u w=2.8u l=0.56u
X29 w_1750_n43456.t53 VINN.t4 a_2044_n43060.t17 w_1750_n43456.t52 pfet_06v0 ad=0.728p pd=3.32u as=0.728p ps=3.32u w=2.8u l=0.56u
X30 VDD.t47 IB.t8 OUT.t9 VDD.t46 pfet_06v0 ad=0.728p pd=3.32u as=2.156p ps=7.14u w=2.8u l=0.56u
X31 VSS.t27 a_8360_n43060.t26 OUT.t26 VSS.t26 nfet_06v0 ad=0.78p pd=3.52u as=0.78p ps=3.52u w=3u l=0.6u
X32 w_1750_n43456.t55 VINN.t5 a_2044_n43060.t16 w_1750_n43456.t54 pfet_06v0 ad=0.728p pd=3.32u as=0.728p ps=3.32u w=2.8u l=0.56u
X33 OUT.t14 IB.t9 VDD.t43 VDD.t42 pfet_06v0 ad=2.156p pd=7.14u as=0.728p ps=3.32u w=2.8u l=0.56u
X34 a_n1924_n46660 a_n1924_n43526.t2 a_n1924_n43526.t3 VSS.t4 nfet_06v0 ad=2.19p pd=7.46u as=2.19p ps=7.46u w=3u l=0.6u
X35 OUT.t25 a_8360_n43060.t27 VSS.t25 VSS.t24 nfet_06v0 ad=0.78p pd=3.52u as=0.78p ps=3.52u w=3u l=0.6u
X36 VSS.t23 a_8360_n43060.t28 OUT.t24 VSS.t22 nfet_06v0 ad=0.78p pd=3.52u as=0.78p ps=3.52u w=3u l=0.6u
X37 VSS.t5 a_n1924_n46660 a_n1924_n46660 VSS.t4 nfet_06v0 ad=2.19p pd=7.46u as=2.19p ps=7.46u w=3u l=0.6u
X38 a_8360_n43060.t9 VINP.t5 w_1750_n43456.t32 w_1750_n43456.t31 pfet_06v0 ad=0.728p pd=3.32u as=0.728p ps=3.32u w=2.8u l=0.56u
X39 a_2044_n43060.t15 VINN.t6 w_1750_n43456.t57 w_1750_n43456.t56 pfet_06v0 ad=0.728p pd=3.32u as=0.728p ps=3.32u w=2.8u l=0.56u
X40 OUT.t10 IB.t10 VDD.t41 VDD.t40 pfet_06v0 ad=0.728p pd=3.32u as=0.728p ps=3.32u w=2.8u l=0.56u
X41 OUT.t23 a_8360_n43060.t29 VSS.t21 VSS.t20 nfet_06v0 ad=0.78p pd=3.52u as=0.78p ps=3.52u w=3u l=0.6u
X42 a_8360_n43060.t10 VINP.t6 w_1750_n43456.t30 w_1750_n43456.t29 pfet_06v0 ad=2.156p pd=7.14u as=0.728p ps=3.32u w=2.8u l=0.56u
X43 w_1750_n43456.t1 IB.t11 VDD.t39 VDD.t38 pfet_06v0 ad=0.728p pd=3.32u as=0.728p ps=3.32u w=2.8u l=0.56u
X44 VDD.t37 IB.t12 OUT.t17 VDD.t36 pfet_06v0 ad=0.728p pd=3.32u as=0.728p ps=3.32u w=2.8u l=0.56u
X45 w_1750_n43456.t28 VINP.t7 a_8360_n43060.t11 w_1750_n43456.t27 pfet_06v0 ad=0.728p pd=3.32u as=0.728p ps=3.32u w=2.8u l=0.56u
X46 OUT.t22 a_8360_n43060.t30 VSS.t19 VSS.t18 nfet_06v0 ad=0.78p pd=3.52u as=0.78p ps=3.52u w=3u l=0.6u
X47 VSS.t17 a_8360_n43060.t31 OUT.t21 VSS.t16 nfet_06v0 ad=0.78p pd=3.52u as=0.78p ps=3.52u w=3u l=0.6u
X48 VSS.t2 a_2044_n43060.t22 a_8360_n43060.t1 VSS.t1 nfet_06v0 ad=2.19p pd=7.46u as=2.19p ps=7.46u w=3u l=0.6u
X49 a_n1924_n43526.t1 IB.t13 VDD.t31 VDD.t30 pfet_06v0 ad=2.156p pd=7.14u as=0.728p ps=3.32u w=2.8u l=0.56u
X50 w_1750_n43456.t26 VINP.t8 a_8360_n43060.t5 w_1750_n43456.t25 pfet_06v0 ad=0.728p pd=3.32u as=0.728p ps=3.32u w=2.8u l=0.56u
X51 VDD.t35 IB.t14 OUT.t1 VDD.t34 pfet_06v0 ad=0.728p pd=3.32u as=0.728p ps=3.32u w=2.8u l=0.56u
X52 VDD.t33 IB.t15 OUT.t7 VDD.t32 pfet_06v0 ad=0.728p pd=3.32u as=0.728p ps=3.32u w=2.8u l=0.56u
X53 a_8360_n43060.t12 VINP.t9 w_1750_n43456.t24 w_1750_n43456.t23 pfet_06v0 ad=0.728p pd=3.32u as=0.728p ps=3.32u w=2.8u l=0.56u
X54 a_2044_n43060.t14 VINN.t7 w_1750_n43456.t59 w_1750_n43456.t58 pfet_06v0 ad=0.728p pd=3.32u as=0.728p ps=3.32u w=2.8u l=0.56u
X55 IB.t1 IB.t0 VDD.t29 VDD.t28 pfet_06v0 ad=2.156p pd=7.14u as=0.728p ps=3.32u w=2.8u l=0.56u
X56 w_1750_n43456.t22 VINP.t10 a_8360_n43060.t13 w_1750_n43456.t21 pfet_06v0 ad=0.728p pd=3.32u as=0.728p ps=3.32u w=2.8u l=0.56u
X57 a_8360_n43060.t8 VINP.t11 w_1750_n43456.t20 w_1750_n43456.t19 pfet_06v0 ad=0.728p pd=3.32u as=0.728p ps=3.32u w=2.8u l=0.56u
X58 a_2044_n43060.t13 VINN.t8 w_1750_n43456.t61 w_1750_n43456.t60 pfet_06v0 ad=0.728p pd=3.32u as=0.728p ps=3.32u w=2.8u l=0.56u
X59 w_1750_n43456.t63 VINN.t9 a_2044_n43060.t12 w_1750_n43456.t62 pfet_06v0 ad=0.728p pd=3.32u as=0.728p ps=3.32u w=2.8u l=0.56u
X60 VDD.t27 IB.t16 OUT.t16 VDD.t26 pfet_06v0 ad=0.728p pd=3.32u as=0.728p ps=3.32u w=2.8u l=0.56u
X61 OUT.t0 IB.t17 VDD.t25 VDD.t24 pfet_06v0 ad=0.728p pd=3.32u as=0.728p ps=3.32u w=2.8u l=0.56u
X62 w_1750_n43456.t65 VINN.t10 a_2044_n43060.t11 w_1750_n43456.t64 pfet_06v0 ad=0.728p pd=3.32u as=0.728p ps=3.32u w=2.8u l=0.56u
X63 a_8360_n43060.t4 VINP.t12 w_1750_n43456.t18 w_1750_n43456.t17 pfet_06v0 ad=0.728p pd=3.32u as=0.728p ps=3.32u w=2.8u l=0.56u
X64 OUT.t5 IB.t18 VDD.t23 VDD.t22 pfet_06v0 ad=0.728p pd=3.32u as=0.728p ps=3.32u w=2.8u l=0.56u
X65 OUT.t11 IB.t19 VDD.t21 VDD.t20 pfet_06v0 ad=0.728p pd=3.32u as=0.728p ps=3.32u w=2.8u l=0.56u
X66 a_2044_n43060.t10 VINN.t11 w_1750_n43456.t67 w_1750_n43456.t66 pfet_06v0 ad=0.728p pd=3.32u as=0.728p ps=3.32u w=2.8u l=0.56u
X67 OUT.t2 IB.t20 VDD.t19 VDD.t18 pfet_06v0 ad=0.728p pd=3.32u as=0.728p ps=3.32u w=2.8u l=0.56u
X68 a_8360_n43060.t11 VINP.t13 w_1750_n43456.t16 w_1750_n43456.t15 pfet_06v0 ad=0.728p pd=3.32u as=0.728p ps=3.32u w=2.8u l=0.56u
X69 a_2044_n43060.t9 VINN.t12 w_1750_n43456.t69 w_1750_n43456.t68 pfet_06v0 ad=0.728p pd=3.32u as=0.728p ps=3.32u w=2.8u l=0.56u
X70 VDD.t17 IB.t21 a_n1924_n43526.t0 VDD.t16 pfet_06v0 ad=0.728p pd=3.32u as=2.156p ps=7.14u w=2.8u l=0.56u
X71 w_1750_n43456.t14 VINP.t14 a_8360_n43060.t14 w_1750_n43456.t13 pfet_06v0 ad=0.728p pd=3.32u as=2.156p ps=7.14u w=2.8u l=0.56u
X72 w_1750_n43456.t71 VINN.t13 a_2044_n43060.t8 w_1750_n43456.t70 pfet_06v0 ad=0.728p pd=3.32u as=0.728p ps=3.32u w=2.8u l=0.56u
X73 VDD.t15 IB.t22 w_1750_n43456.t2 VDD.t14 pfet_06v0 ad=0.728p pd=3.32u as=2.156p ps=7.14u w=2.8u l=0.56u
X74 a_8360_n43060.t13 VINP.t15 w_1750_n43456.t12 w_1750_n43456.t11 pfet_06v0 ad=0.728p pd=3.32u as=0.728p ps=3.32u w=2.8u l=0.56u
X75 OUT.t20 a_8360_n43060.t32 VSS.t15 VSS.t14 nfet_06v0 ad=0.78p pd=3.52u as=0.78p ps=3.52u w=3u l=0.6u
X76 OUT.t39 IB.t23 VDD.t13 VDD.t12 pfet_06v0 ad=0.728p pd=3.32u as=0.728p ps=3.32u w=2.8u l=0.56u
X77 a_8360_n43060.t0 a_n1924_n43526.t6 a_16582_n43566.t1 VSS.t0 nfet_06v0 ad=0.78p pd=3.52u as=0.78p ps=3.52u w=3u l=0.6u
X78 w_1750_n43456.t10 VINP.t16 a_8360_n43060.t7 w_1750_n43456.t9 pfet_06v0 ad=0.728p pd=3.32u as=0.728p ps=3.32u w=2.8u l=0.56u
X79 a_2044_n43060.t7 VINN.t14 w_1750_n43456.t73 w_1750_n43456.t72 pfet_06v0 ad=0.728p pd=3.32u as=0.728p ps=3.32u w=2.8u l=0.56u
X80 OUT.t3 IB.t24 VDD.t11 VDD.t10 pfet_06v0 ad=0.728p pd=3.32u as=0.728p ps=3.32u w=2.8u l=0.56u
X81 VSS.t13 a_8360_n43060.t33 OUT.t19 VSS.t12 nfet_06v0 ad=2.19p pd=7.46u as=0.78p ps=3.52u w=3u l=0.6u
X82 w_1750_n43456.t75 VINN.t15 a_2044_n43060.t6 w_1750_n43456.t74 pfet_06v0 ad=0.728p pd=3.32u as=0.728p ps=3.32u w=2.8u l=0.56u
X83 VDD.t9 IB.t25 OUT.t15 VDD.t8 pfet_06v0 ad=0.728p pd=3.32u as=0.728p ps=3.32u w=2.8u l=0.56u
X84 a_16582_n43566.t0 a_n1924_n43526.t7 a_8360_n43060.t0 VSS.t3 nfet_06v0 ad=0.78p pd=3.52u as=0.78p ps=3.52u w=3u l=0.6u
X85 w_1750_n43456.t8 VINP.t17 a_8360_n43060.t12 w_1750_n43456.t7 pfet_06v0 ad=0.728p pd=3.32u as=0.728p ps=3.32u w=2.8u l=0.56u
X86 w_1750_n43456.t6 VINP.t18 a_8360_n43060.t6 w_1750_n43456.t5 pfet_06v0 ad=0.728p pd=3.32u as=0.728p ps=3.32u w=2.8u l=0.56u
X87 VDD.t7 IB.t26 OUT.t12 VDD.t6 pfet_06v0 ad=0.728p pd=3.32u as=0.728p ps=3.32u w=2.8u l=0.56u
X88 w_1750_n43456.t77 VINN.t16 a_2044_n43060.t5 w_1750_n43456.t76 pfet_06v0 ad=0.728p pd=3.32u as=2.156p ps=7.14u w=2.8u l=0.56u
X89 a_2044_n43060.t4 VINN.t17 w_1750_n43456.t79 w_1750_n43456.t78 pfet_06v0 ad=2.156p pd=7.14u as=0.728p ps=3.32u w=2.8u l=0.56u
X90 VDD.t5 IB.t27 OUT.t4 VDD.t4 pfet_06v0 ad=0.728p pd=3.32u as=0.728p ps=3.32u w=2.8u l=0.56u
X91 a_2044_n43060.t3 VINN.t18 w_1750_n43456.t81 w_1750_n43456.t80 pfet_06v0 ad=0.728p pd=3.32u as=0.728p ps=3.32u w=2.8u l=0.56u
X92 w_1750_n43456.t43 IB.t28 VDD.t3 VDD.t2 pfet_06v0 ad=2.156p pd=7.14u as=0.728p ps=3.32u w=2.8u l=0.56u
X93 OUT.t18 a_8360_n43060.t34 VSS.t11 VSS.t10 nfet_06v0 ad=0.78p pd=3.52u as=0.78p ps=3.52u w=3u l=0.6u
X94 w_1750_n43456.t4 VINP.t19 a_8360_n43060.t9 w_1750_n43456.t3 pfet_06v0 ad=0.728p pd=3.32u as=0.728p ps=3.32u w=2.8u l=0.56u
X95 VDD.t1 IB.t29 OUT.t13 VDD.t0 pfet_06v0 ad=0.728p pd=3.32u as=0.728p ps=3.32u w=2.8u l=0.56u
X96 w_1750_n43456.t83 VINN.t19 a_2044_n43060.t2 w_1750_n43456.t82 pfet_06v0 ad=0.728p pd=3.32u as=0.728p ps=3.32u w=2.8u l=0.56u
R0 a_8360_n43060.n1 a_8360_n43060.t33 45.7165
R1 a_8360_n43060.n2 a_8360_n43060.t19 45.5905
R2 a_8360_n43060.n2 a_8360_n43060.t26 45.5905
R3 a_8360_n43060.n2 a_8360_n43060.t34 45.5905
R4 a_8360_n43060.n2 a_8360_n43060.t25 45.5905
R5 a_8360_n43060.n2 a_8360_n43060.t29 45.5905
R6 a_8360_n43060.n2 a_8360_n43060.t18 45.5905
R7 a_8360_n43060.n2 a_8360_n43060.t21 45.5905
R8 a_8360_n43060.n2 a_8360_n43060.t31 45.5905
R9 a_8360_n43060.n2 a_8360_n43060.t24 45.5905
R10 a_8360_n43060.n2 a_8360_n43060.t28 45.5905
R11 a_8360_n43060.n2 a_8360_n43060.t17 45.5905
R12 a_8360_n43060.n2 a_8360_n43060.t20 45.5905
R13 a_8360_n43060.n1 a_8360_n43060.t30 45.5905
R14 a_8360_n43060.n1 a_8360_n43060.t23 45.5905
R15 a_8360_n43060.n1 a_8360_n43060.t27 45.5905
R16 a_8360_n43060.n1 a_8360_n43060.t16 45.5905
R17 a_8360_n43060.n1 a_8360_n43060.t22 45.5905
R18 a_8360_n43060.n1 a_8360_n43060.t15 45.5905
R19 a_8360_n43060.n1 a_8360_n43060.t32 45.5905
R20 a_8360_n43060.n0 a_8360_n43060.t1 10.3183
R21 a_8360_n43060.n0 a_8360_n43060.t10 9.50526
R22 a_8360_n43060.n0 a_8360_n43060.t14 9.32226
R23 a_8360_n43060.t4 a_8360_n43060.n0 7.97226
R24 a_8360_n43060.n0 a_8360_n43060.t9 7.97226
R25 a_8360_n43060.n0 a_8360_n43060.t13 7.97226
R26 a_8360_n43060.n0 a_8360_n43060.t6 7.97226
R27 a_8360_n43060.n0 a_8360_n43060.t11 7.97226
R28 a_8360_n43060.n0 a_8360_n43060.t8 7.97226
R29 a_8360_n43060.n0 a_8360_n43060.t7 7.97226
R30 a_8360_n43060.n0 a_8360_n43060.t5 7.97226
R31 a_8360_n43060.n0 a_8360_n43060.t12 7.97226
R32 a_8360_n43060.n3 a_8360_n43060.t3 7.22176
R33 a_8360_n43060.n3 a_8360_n43060.t2 7.03426
R34 a_8360_n43060.n3 a_8360_n43060.t0 5.94226
R35 a_8360_n43060.n0 a_8360_n43060.n4 5.34326
R36 a_8360_n43060.n4 a_8360_n43060.n3 2.51291
R37 a_8360_n43060.n2 a_8360_n43060.n1 2.26567
R38 a_8360_n43060.n4 a_8360_n43060.n2 2.24658
R39 OUT.n39 OUT.n38 17.1003
R40 OUT.n1 OUT.t9 9.50526
R41 OUT.n18 OUT.t14 9.32226
R42 OUT.n22 OUT.n20 8.35926
R43 OUT.n22 OUT.n21 8.19126
R44 OUT.n24 OUT.n23 8.19126
R45 OUT.n26 OUT.n25 8.19126
R46 OUT.n28 OUT.n27 8.19126
R47 OUT.n32 OUT.n31 8.19126
R48 OUT.n34 OUT.n33 8.19126
R49 OUT.n36 OUT.n35 8.19126
R50 OUT.n38 OUT.n37 8.19126
R51 OUT.n30 OUT.n29 8.18938
R52 OUT.n1 OUT.n0 7.97226
R53 OUT.n3 OUT.n2 7.97226
R54 OUT.n5 OUT.n4 7.97226
R55 OUT.n7 OUT.n6 7.97226
R56 OUT.n9 OUT.n8 7.97226
R57 OUT.n11 OUT.n10 7.97226
R58 OUT.n13 OUT.n12 7.97226
R59 OUT.n15 OUT.n14 7.97226
R60 OUT.n17 OUT.n16 7.97226
R61 OUT.n19 OUT.n18 3.98467
R62 OUT.n39 OUT.n19 3.4289
R63 OUT.n0 OUT.t1 0.6505
R64 OUT.n0 OUT.t6 0.6505
R65 OUT.n2 OUT.t38 0.6505
R66 OUT.n2 OUT.t11 0.6505
R67 OUT.n4 OUT.t17 0.6505
R68 OUT.n4 OUT.t2 0.6505
R69 OUT.n6 OUT.t15 0.6505
R70 OUT.n6 OUT.t39 0.6505
R71 OUT.n8 OUT.t12 0.6505
R72 OUT.n8 OUT.t0 0.6505
R73 OUT.n10 OUT.t7 0.6505
R74 OUT.n10 OUT.t5 0.6505
R75 OUT.n12 OUT.t4 0.6505
R76 OUT.n12 OUT.t8 0.6505
R77 OUT.n14 OUT.t13 0.6505
R78 OUT.n14 OUT.t10 0.6505
R79 OUT.n16 OUT.t16 0.6505
R80 OUT.n16 OUT.t3 0.6505
R81 OUT.n20 OUT.t26 0.5465
R82 OUT.n20 OUT.t33 0.5465
R83 OUT.n21 OUT.t27 0.5465
R84 OUT.n21 OUT.t18 0.5465
R85 OUT.n23 OUT.t34 0.5465
R86 OUT.n23 OUT.t23 0.5465
R87 OUT.n25 OUT.t21 0.5465
R88 OUT.n25 OUT.t31 0.5465
R89 OUT.n27 OUT.t24 0.5465
R90 OUT.n27 OUT.t28 0.5465
R91 OUT.n29 OUT.t32 0.5465
R92 OUT.n29 OUT.t35 0.5465
R93 OUT.n31 OUT.t29 0.5465
R94 OUT.n31 OUT.t22 0.5465
R95 OUT.n33 OUT.t36 0.5465
R96 OUT.n33 OUT.t25 0.5465
R97 OUT.n35 OUT.t37 0.5465
R98 OUT.n35 OUT.t30 0.5465
R99 OUT.n37 OUT.t19 0.5465
R100 OUT.n37 OUT.t20 0.5465
R101 OUT.n18 OUT.n17 0.1835
R102 OUT.n32 OUT.n30 0.16925
R103 OUT.n38 OUT.n36 0.1685
R104 OUT.n36 OUT.n34 0.1685
R105 OUT.n34 OUT.n32 0.1685
R106 OUT.n28 OUT.n26 0.1685
R107 OUT.n26 OUT.n24 0.1685
R108 OUT.n24 OUT.n22 0.1685
R109 OUT.n30 OUT.n28 0.16775
R110 OUT.n17 OUT.n15 0.1625
R111 OUT.n15 OUT.n13 0.1625
R112 OUT.n13 OUT.n11 0.1625
R113 OUT.n11 OUT.n9 0.1625
R114 OUT.n9 OUT.n7 0.1625
R115 OUT.n7 OUT.n5 0.1625
R116 OUT.n5 OUT.n3 0.1625
R117 OUT.n3 OUT.n1 0.1625
R118 OUT OUT.n39 0.04406
R119 OUT.n19 OUT.t40 0.00626923
R120 VSS.n1653 VSS.n895 69723.4
R121 VSS.n1755 VSS.n1654 6559.61
R122 VSS.n1653 VSS.n774 5526.89
R123 VSS.n3422 VSS.n895 1647.74
R124 VSS.n1654 VSS.n1653 947.068
R125 VSS.n3422 VSS.n896 549.845
R126 VSS.n1756 VSS.n1755 519.331
R127 VSS.n3405 VSS.t1 446.337
R128 VSS.n3508 VSS.n775 427.789
R129 VSS.t7 VSS.n775 415.824
R130 VSS.n3405 VSS.n774 396.079
R131 VSS.n4029 VSS.n705 324.303
R132 VSS.n705 VSS.n606 289.947
R133 VSS.n4158 VSS.n458 271.067
R134 VSS.n4026 VSS.n471 256.421
R135 VSS.n4144 VSS.n471 256.421
R136 VSS.n1756 VSS.n1699 226.161
R137 VSS.n3402 VSS.n896 195.647
R138 VSS.t1 VSS.n3402 183.083
R139 VSS.n1699 VSS.t7 183.083
R140 VSS.n895 VSS.n708 180.463
R141 VSS.n3424 VSS.n893 173.712
R142 VSS.n2187 VSS.n1622 169.013
R143 VSS.n1757 VSS.n1698 169.013
R144 VSS.n2238 VSS.n1623 154.922
R145 VSS.n4158 VSS.n459 147.554
R146 VSS.n3801 VSS.n3559 131.619
R147 VSS.n1925 VSS.n1621 127.013
R148 VSS.n2238 VSS.n1622 127.013
R149 VSS.n2106 VSS.n1619 127.013
R150 VSS.n3406 VSS.n897 127.013
R151 VSS.n1702 VSS.n1701 127.013
R152 VSS.n3404 VSS.n893 127.013
R153 VSS.n1758 VSS.n1757 127.013
R154 VSS.n2097 VSS.n1623 126.921
R155 VSS.n3509 VSS.n773 126.921
R156 VSS.n1703 VSS.n1698 126.921
R157 VSS.n4026 VSS.n710 126.921
R158 VSS.n3852 VSS.n3803 126.921
R159 VSS.n4160 VSS.n457 116.626
R160 VSS.n3421 VSS.n897 98.6452
R161 VSS.n3853 VSS.n3801 96.8952
R162 VSS.n1925 VSS.n1656 93.9479
R163 VSS.n1753 VSS.n1702 93.9479
R164 VSS.n3853 VSS.n3852 89.6189
R165 VSS.n1880 VSS.n1657 89.0663
R166 VSS.n2125 VSS.n2006 89.0663
R167 VSS.n3509 VSS.n772 89.0663
R168 VSS.n2185 VSS.n1618 81.2458
R169 VSS.n2106 VSS.n1657 79.9479
R170 VSS.n2005 VSS.n1621 79.8558
R171 VSS.n2185 VSS.n1654 78.625
R172 VSS.n4029 VSS.n706 78.5663
R173 VSS.n2239 VSS.n1620 66.9249
R174 VSS.n2006 VSS.n1619 65.8558
R175 VSS.n1701 VSS.n776 65.8558
R176 VSS.n1758 VSS.n772 65.8558
R177 VSS.n4028 VSS.n4027 65.0529
R178 VSS.t4 VSS.n2239 65.0529
R179 VSS.n3406 VSS.n776 61.1584
R180 VSS.n3404 VSS.n772 61.1584
R181 VSS.n3797 VSS.n3559 61.0663
R182 VSS.n1866 VSS.n1656 51.6716
R183 VSS.n2127 VSS.n2005 51.6716
R184 VSS.n2184 VSS.n1652 51.6716
R185 VSS.n3421 VSS.n894 51.6716
R186 VSS.n616 VSS.n606 51.6716
R187 VSS.n4147 VSS.n470 51.6716
R188 VSS.n3797 VSS.n459 45.1321
R189 VSS.n2242 VSS.n1618 35.3815
R190 VSS.n4028 VSS.n707 33.4159
R191 VSS.t40 VSS.n707 32.9479
R192 VSS.n4160 VSS.t12 28.6423
R193 VSS.n2242 VSS.t4 28.6423
R194 VSS.t12 VSS.t14 20.967
R195 VSS.t34 VSS.t48 20.967
R196 VSS.t46 VSS.t34 20.967
R197 VSS.t24 VSS.t46 20.967
R198 VSS.t32 VSS.t24 20.967
R199 VSS.t18 VSS.t38 20.967
R200 VSS.t38 VSS.t44 20.967
R201 VSS.t30 VSS.t22 20.967
R202 VSS.t16 VSS.t36 20.967
R203 VSS.t36 VSS.t42 20.967
R204 VSS.t20 VSS.t9 20.4054
R205 VSS.t28 VSS.t3 20.4054
R206 VSS.t26 VSS.t6 20.4054
R207 VSS.n4146 VSS.t22 20.031
R208 VSS.t14 VSS.n4159 18.7206
R209 VSS.n3560 VSS.t0 17.1294
R210 VSS.n3796 VSS.t16 16.0998
R211 VSS.n2099 VSS.n2006 14.0005
R212 VSS.n2184 VSS.n1657 14.0005
R213 VSS.n3506 VSS.n776 14.0005
R214 VSS.n3854 VSS.n3853 14.0005
R215 VSS.n4147 VSS.n459 14.0005
R216 VSS.n704 VSS.t18 11.607
R217 VSS.n3206 VSS.n1375 9.92188
R218 VSS.n2243 VSS.n1375 9.86
R219 VSS.n704 VSS.t32 9.36056
R220 VSS.n3795 VSS.n3794 8.70536
R221 VSS.n3794 VSS.t20 8.23735
R222 VSS.n4162 VSS.t41 7.22413
R223 VSS.n4162 VSS.n4161 5.94463
R224 VSS.n4164 VSS.n4163 5.94463
R225 VSS.n4166 VSS.n4165 5.94463
R226 VSS.n4168 VSS.n4167 5.94463
R227 VSS.n4170 VSS.n4169 5.94463
R228 VSS.n4174 VSS.n4173 5.94463
R229 VSS.n4176 VSS.n4175 5.94463
R230 VSS.n4178 VSS.n4177 5.94463
R231 VSS.n4172 VSS.n4171 5.94275
R232 VSS.n2241 VSS.t5 4.96786
R233 VSS.n3796 VSS.t30 4.86773
R234 VSS.n4179 VSS.t13 4.75524
R235 VSS.n1030 VSS.t8 4.74785
R236 VSS.n3401 VSS.t2 4.74752
R237 VSS.n4503 VSS.n4502 4.5005
R238 VSS.n4504 VSS.n4503 4.5005
R239 VSS.n4504 VSS.n383 4.5005
R240 VSS.n193 VSS.n69 4.5005
R241 VSS.n195 VSS.n69 4.5005
R242 VSS.n192 VSS.n69 4.5005
R243 VSS.n196 VSS.n69 4.5005
R244 VSS.n191 VSS.n69 4.5005
R245 VSS.n197 VSS.n69 4.5005
R246 VSS.n190 VSS.n69 4.5005
R247 VSS.n198 VSS.n69 4.5005
R248 VSS.n189 VSS.n69 4.5005
R249 VSS.n199 VSS.n69 4.5005
R250 VSS.n188 VSS.n69 4.5005
R251 VSS.n200 VSS.n69 4.5005
R252 VSS.n187 VSS.n69 4.5005
R253 VSS.n201 VSS.n69 4.5005
R254 VSS.n186 VSS.n69 4.5005
R255 VSS.n202 VSS.n69 4.5005
R256 VSS.n185 VSS.n69 4.5005
R257 VSS.n203 VSS.n69 4.5005
R258 VSS.n184 VSS.n69 4.5005
R259 VSS.n204 VSS.n69 4.5005
R260 VSS.n183 VSS.n69 4.5005
R261 VSS.n205 VSS.n69 4.5005
R262 VSS.n182 VSS.n69 4.5005
R263 VSS.n206 VSS.n69 4.5005
R264 VSS.n181 VSS.n69 4.5005
R265 VSS.n207 VSS.n69 4.5005
R266 VSS.n180 VSS.n69 4.5005
R267 VSS.n208 VSS.n69 4.5005
R268 VSS.n179 VSS.n69 4.5005
R269 VSS.n209 VSS.n69 4.5005
R270 VSS.n178 VSS.n69 4.5005
R271 VSS.n210 VSS.n69 4.5005
R272 VSS.n177 VSS.n69 4.5005
R273 VSS.n211 VSS.n69 4.5005
R274 VSS.n176 VSS.n69 4.5005
R275 VSS.n212 VSS.n69 4.5005
R276 VSS.n175 VSS.n69 4.5005
R277 VSS.n213 VSS.n69 4.5005
R278 VSS.n174 VSS.n69 4.5005
R279 VSS.n214 VSS.n69 4.5005
R280 VSS.n173 VSS.n69 4.5005
R281 VSS.n215 VSS.n69 4.5005
R282 VSS.n172 VSS.n69 4.5005
R283 VSS.n216 VSS.n69 4.5005
R284 VSS.n171 VSS.n69 4.5005
R285 VSS.n217 VSS.n69 4.5005
R286 VSS.n170 VSS.n69 4.5005
R287 VSS.n218 VSS.n69 4.5005
R288 VSS.n169 VSS.n69 4.5005
R289 VSS.n219 VSS.n69 4.5005
R290 VSS.n168 VSS.n69 4.5005
R291 VSS.n220 VSS.n69 4.5005
R292 VSS.n167 VSS.n69 4.5005
R293 VSS.n221 VSS.n69 4.5005
R294 VSS.n166 VSS.n69 4.5005
R295 VSS.n222 VSS.n69 4.5005
R296 VSS.n165 VSS.n69 4.5005
R297 VSS.n223 VSS.n69 4.5005
R298 VSS.n164 VSS.n69 4.5005
R299 VSS.n224 VSS.n69 4.5005
R300 VSS.n163 VSS.n69 4.5005
R301 VSS.n225 VSS.n69 4.5005
R302 VSS.n162 VSS.n69 4.5005
R303 VSS.n226 VSS.n69 4.5005
R304 VSS.n161 VSS.n69 4.5005
R305 VSS.n227 VSS.n69 4.5005
R306 VSS.n160 VSS.n69 4.5005
R307 VSS.n228 VSS.n69 4.5005
R308 VSS.n159 VSS.n69 4.5005
R309 VSS.n229 VSS.n69 4.5005
R310 VSS.n158 VSS.n69 4.5005
R311 VSS.n230 VSS.n69 4.5005
R312 VSS.n157 VSS.n69 4.5005
R313 VSS.n231 VSS.n69 4.5005
R314 VSS.n156 VSS.n69 4.5005
R315 VSS.n232 VSS.n69 4.5005
R316 VSS.n155 VSS.n69 4.5005
R317 VSS.n233 VSS.n69 4.5005
R318 VSS.n154 VSS.n69 4.5005
R319 VSS.n234 VSS.n69 4.5005
R320 VSS.n153 VSS.n69 4.5005
R321 VSS.n235 VSS.n69 4.5005
R322 VSS.n4506 VSS.n69 4.5005
R323 VSS.n236 VSS.n69 4.5005
R324 VSS.n152 VSS.n69 4.5005
R325 VSS.n237 VSS.n69 4.5005
R326 VSS.n151 VSS.n69 4.5005
R327 VSS.n238 VSS.n69 4.5005
R328 VSS.n150 VSS.n69 4.5005
R329 VSS.n239 VSS.n69 4.5005
R330 VSS.n149 VSS.n69 4.5005
R331 VSS.n240 VSS.n69 4.5005
R332 VSS.n148 VSS.n69 4.5005
R333 VSS.n241 VSS.n69 4.5005
R334 VSS.n147 VSS.n69 4.5005
R335 VSS.n242 VSS.n69 4.5005
R336 VSS.n146 VSS.n69 4.5005
R337 VSS.n243 VSS.n69 4.5005
R338 VSS.n145 VSS.n69 4.5005
R339 VSS.n244 VSS.n69 4.5005
R340 VSS.n144 VSS.n69 4.5005
R341 VSS.n245 VSS.n69 4.5005
R342 VSS.n143 VSS.n69 4.5005
R343 VSS.n246 VSS.n69 4.5005
R344 VSS.n142 VSS.n69 4.5005
R345 VSS.n247 VSS.n69 4.5005
R346 VSS.n141 VSS.n69 4.5005
R347 VSS.n248 VSS.n69 4.5005
R348 VSS.n140 VSS.n69 4.5005
R349 VSS.n249 VSS.n69 4.5005
R350 VSS.n139 VSS.n69 4.5005
R351 VSS.n250 VSS.n69 4.5005
R352 VSS.n138 VSS.n69 4.5005
R353 VSS.n251 VSS.n69 4.5005
R354 VSS.n137 VSS.n69 4.5005
R355 VSS.n252 VSS.n69 4.5005
R356 VSS.n136 VSS.n69 4.5005
R357 VSS.n253 VSS.n69 4.5005
R358 VSS.n135 VSS.n69 4.5005
R359 VSS.n254 VSS.n69 4.5005
R360 VSS.n134 VSS.n69 4.5005
R361 VSS.n255 VSS.n69 4.5005
R362 VSS.n133 VSS.n69 4.5005
R363 VSS.n256 VSS.n69 4.5005
R364 VSS.n132 VSS.n69 4.5005
R365 VSS.n4502 VSS.n69 4.5005
R366 VSS.n4504 VSS.n69 4.5005
R367 VSS.n193 VSS.n67 4.5005
R368 VSS.n195 VSS.n67 4.5005
R369 VSS.n192 VSS.n67 4.5005
R370 VSS.n196 VSS.n67 4.5005
R371 VSS.n191 VSS.n67 4.5005
R372 VSS.n197 VSS.n67 4.5005
R373 VSS.n190 VSS.n67 4.5005
R374 VSS.n198 VSS.n67 4.5005
R375 VSS.n189 VSS.n67 4.5005
R376 VSS.n199 VSS.n67 4.5005
R377 VSS.n188 VSS.n67 4.5005
R378 VSS.n200 VSS.n67 4.5005
R379 VSS.n187 VSS.n67 4.5005
R380 VSS.n201 VSS.n67 4.5005
R381 VSS.n186 VSS.n67 4.5005
R382 VSS.n202 VSS.n67 4.5005
R383 VSS.n185 VSS.n67 4.5005
R384 VSS.n203 VSS.n67 4.5005
R385 VSS.n184 VSS.n67 4.5005
R386 VSS.n204 VSS.n67 4.5005
R387 VSS.n183 VSS.n67 4.5005
R388 VSS.n205 VSS.n67 4.5005
R389 VSS.n182 VSS.n67 4.5005
R390 VSS.n206 VSS.n67 4.5005
R391 VSS.n181 VSS.n67 4.5005
R392 VSS.n207 VSS.n67 4.5005
R393 VSS.n180 VSS.n67 4.5005
R394 VSS.n208 VSS.n67 4.5005
R395 VSS.n179 VSS.n67 4.5005
R396 VSS.n209 VSS.n67 4.5005
R397 VSS.n178 VSS.n67 4.5005
R398 VSS.n210 VSS.n67 4.5005
R399 VSS.n177 VSS.n67 4.5005
R400 VSS.n211 VSS.n67 4.5005
R401 VSS.n176 VSS.n67 4.5005
R402 VSS.n212 VSS.n67 4.5005
R403 VSS.n175 VSS.n67 4.5005
R404 VSS.n213 VSS.n67 4.5005
R405 VSS.n174 VSS.n67 4.5005
R406 VSS.n214 VSS.n67 4.5005
R407 VSS.n173 VSS.n67 4.5005
R408 VSS.n215 VSS.n67 4.5005
R409 VSS.n172 VSS.n67 4.5005
R410 VSS.n216 VSS.n67 4.5005
R411 VSS.n171 VSS.n67 4.5005
R412 VSS.n217 VSS.n67 4.5005
R413 VSS.n170 VSS.n67 4.5005
R414 VSS.n218 VSS.n67 4.5005
R415 VSS.n169 VSS.n67 4.5005
R416 VSS.n219 VSS.n67 4.5005
R417 VSS.n168 VSS.n67 4.5005
R418 VSS.n220 VSS.n67 4.5005
R419 VSS.n167 VSS.n67 4.5005
R420 VSS.n221 VSS.n67 4.5005
R421 VSS.n166 VSS.n67 4.5005
R422 VSS.n222 VSS.n67 4.5005
R423 VSS.n165 VSS.n67 4.5005
R424 VSS.n223 VSS.n67 4.5005
R425 VSS.n164 VSS.n67 4.5005
R426 VSS.n224 VSS.n67 4.5005
R427 VSS.n163 VSS.n67 4.5005
R428 VSS.n225 VSS.n67 4.5005
R429 VSS.n162 VSS.n67 4.5005
R430 VSS.n226 VSS.n67 4.5005
R431 VSS.n161 VSS.n67 4.5005
R432 VSS.n227 VSS.n67 4.5005
R433 VSS.n160 VSS.n67 4.5005
R434 VSS.n228 VSS.n67 4.5005
R435 VSS.n159 VSS.n67 4.5005
R436 VSS.n229 VSS.n67 4.5005
R437 VSS.n158 VSS.n67 4.5005
R438 VSS.n230 VSS.n67 4.5005
R439 VSS.n157 VSS.n67 4.5005
R440 VSS.n231 VSS.n67 4.5005
R441 VSS.n156 VSS.n67 4.5005
R442 VSS.n232 VSS.n67 4.5005
R443 VSS.n155 VSS.n67 4.5005
R444 VSS.n233 VSS.n67 4.5005
R445 VSS.n154 VSS.n67 4.5005
R446 VSS.n234 VSS.n67 4.5005
R447 VSS.n153 VSS.n67 4.5005
R448 VSS.n235 VSS.n67 4.5005
R449 VSS.n4506 VSS.n67 4.5005
R450 VSS.n236 VSS.n67 4.5005
R451 VSS.n152 VSS.n67 4.5005
R452 VSS.n237 VSS.n67 4.5005
R453 VSS.n151 VSS.n67 4.5005
R454 VSS.n238 VSS.n67 4.5005
R455 VSS.n150 VSS.n67 4.5005
R456 VSS.n239 VSS.n67 4.5005
R457 VSS.n149 VSS.n67 4.5005
R458 VSS.n240 VSS.n67 4.5005
R459 VSS.n148 VSS.n67 4.5005
R460 VSS.n241 VSS.n67 4.5005
R461 VSS.n147 VSS.n67 4.5005
R462 VSS.n242 VSS.n67 4.5005
R463 VSS.n146 VSS.n67 4.5005
R464 VSS.n243 VSS.n67 4.5005
R465 VSS.n145 VSS.n67 4.5005
R466 VSS.n244 VSS.n67 4.5005
R467 VSS.n144 VSS.n67 4.5005
R468 VSS.n245 VSS.n67 4.5005
R469 VSS.n143 VSS.n67 4.5005
R470 VSS.n246 VSS.n67 4.5005
R471 VSS.n142 VSS.n67 4.5005
R472 VSS.n247 VSS.n67 4.5005
R473 VSS.n141 VSS.n67 4.5005
R474 VSS.n248 VSS.n67 4.5005
R475 VSS.n140 VSS.n67 4.5005
R476 VSS.n249 VSS.n67 4.5005
R477 VSS.n139 VSS.n67 4.5005
R478 VSS.n250 VSS.n67 4.5005
R479 VSS.n138 VSS.n67 4.5005
R480 VSS.n251 VSS.n67 4.5005
R481 VSS.n137 VSS.n67 4.5005
R482 VSS.n252 VSS.n67 4.5005
R483 VSS.n136 VSS.n67 4.5005
R484 VSS.n253 VSS.n67 4.5005
R485 VSS.n135 VSS.n67 4.5005
R486 VSS.n254 VSS.n67 4.5005
R487 VSS.n134 VSS.n67 4.5005
R488 VSS.n255 VSS.n67 4.5005
R489 VSS.n133 VSS.n67 4.5005
R490 VSS.n256 VSS.n67 4.5005
R491 VSS.n132 VSS.n67 4.5005
R492 VSS.n4502 VSS.n67 4.5005
R493 VSS.n4504 VSS.n67 4.5005
R494 VSS.n193 VSS.n70 4.5005
R495 VSS.n195 VSS.n70 4.5005
R496 VSS.n192 VSS.n70 4.5005
R497 VSS.n196 VSS.n70 4.5005
R498 VSS.n191 VSS.n70 4.5005
R499 VSS.n197 VSS.n70 4.5005
R500 VSS.n190 VSS.n70 4.5005
R501 VSS.n198 VSS.n70 4.5005
R502 VSS.n189 VSS.n70 4.5005
R503 VSS.n199 VSS.n70 4.5005
R504 VSS.n188 VSS.n70 4.5005
R505 VSS.n200 VSS.n70 4.5005
R506 VSS.n187 VSS.n70 4.5005
R507 VSS.n201 VSS.n70 4.5005
R508 VSS.n186 VSS.n70 4.5005
R509 VSS.n202 VSS.n70 4.5005
R510 VSS.n185 VSS.n70 4.5005
R511 VSS.n203 VSS.n70 4.5005
R512 VSS.n184 VSS.n70 4.5005
R513 VSS.n204 VSS.n70 4.5005
R514 VSS.n183 VSS.n70 4.5005
R515 VSS.n205 VSS.n70 4.5005
R516 VSS.n182 VSS.n70 4.5005
R517 VSS.n206 VSS.n70 4.5005
R518 VSS.n181 VSS.n70 4.5005
R519 VSS.n207 VSS.n70 4.5005
R520 VSS.n180 VSS.n70 4.5005
R521 VSS.n208 VSS.n70 4.5005
R522 VSS.n179 VSS.n70 4.5005
R523 VSS.n209 VSS.n70 4.5005
R524 VSS.n178 VSS.n70 4.5005
R525 VSS.n210 VSS.n70 4.5005
R526 VSS.n177 VSS.n70 4.5005
R527 VSS.n211 VSS.n70 4.5005
R528 VSS.n176 VSS.n70 4.5005
R529 VSS.n212 VSS.n70 4.5005
R530 VSS.n175 VSS.n70 4.5005
R531 VSS.n213 VSS.n70 4.5005
R532 VSS.n174 VSS.n70 4.5005
R533 VSS.n214 VSS.n70 4.5005
R534 VSS.n173 VSS.n70 4.5005
R535 VSS.n215 VSS.n70 4.5005
R536 VSS.n172 VSS.n70 4.5005
R537 VSS.n216 VSS.n70 4.5005
R538 VSS.n171 VSS.n70 4.5005
R539 VSS.n217 VSS.n70 4.5005
R540 VSS.n170 VSS.n70 4.5005
R541 VSS.n218 VSS.n70 4.5005
R542 VSS.n169 VSS.n70 4.5005
R543 VSS.n219 VSS.n70 4.5005
R544 VSS.n168 VSS.n70 4.5005
R545 VSS.n220 VSS.n70 4.5005
R546 VSS.n167 VSS.n70 4.5005
R547 VSS.n221 VSS.n70 4.5005
R548 VSS.n166 VSS.n70 4.5005
R549 VSS.n222 VSS.n70 4.5005
R550 VSS.n165 VSS.n70 4.5005
R551 VSS.n223 VSS.n70 4.5005
R552 VSS.n164 VSS.n70 4.5005
R553 VSS.n224 VSS.n70 4.5005
R554 VSS.n163 VSS.n70 4.5005
R555 VSS.n225 VSS.n70 4.5005
R556 VSS.n162 VSS.n70 4.5005
R557 VSS.n226 VSS.n70 4.5005
R558 VSS.n161 VSS.n70 4.5005
R559 VSS.n227 VSS.n70 4.5005
R560 VSS.n160 VSS.n70 4.5005
R561 VSS.n228 VSS.n70 4.5005
R562 VSS.n159 VSS.n70 4.5005
R563 VSS.n229 VSS.n70 4.5005
R564 VSS.n158 VSS.n70 4.5005
R565 VSS.n230 VSS.n70 4.5005
R566 VSS.n157 VSS.n70 4.5005
R567 VSS.n231 VSS.n70 4.5005
R568 VSS.n156 VSS.n70 4.5005
R569 VSS.n232 VSS.n70 4.5005
R570 VSS.n155 VSS.n70 4.5005
R571 VSS.n233 VSS.n70 4.5005
R572 VSS.n154 VSS.n70 4.5005
R573 VSS.n234 VSS.n70 4.5005
R574 VSS.n153 VSS.n70 4.5005
R575 VSS.n235 VSS.n70 4.5005
R576 VSS.n4506 VSS.n70 4.5005
R577 VSS.n236 VSS.n70 4.5005
R578 VSS.n152 VSS.n70 4.5005
R579 VSS.n237 VSS.n70 4.5005
R580 VSS.n151 VSS.n70 4.5005
R581 VSS.n238 VSS.n70 4.5005
R582 VSS.n150 VSS.n70 4.5005
R583 VSS.n239 VSS.n70 4.5005
R584 VSS.n149 VSS.n70 4.5005
R585 VSS.n240 VSS.n70 4.5005
R586 VSS.n148 VSS.n70 4.5005
R587 VSS.n241 VSS.n70 4.5005
R588 VSS.n147 VSS.n70 4.5005
R589 VSS.n242 VSS.n70 4.5005
R590 VSS.n146 VSS.n70 4.5005
R591 VSS.n243 VSS.n70 4.5005
R592 VSS.n145 VSS.n70 4.5005
R593 VSS.n244 VSS.n70 4.5005
R594 VSS.n144 VSS.n70 4.5005
R595 VSS.n245 VSS.n70 4.5005
R596 VSS.n143 VSS.n70 4.5005
R597 VSS.n246 VSS.n70 4.5005
R598 VSS.n142 VSS.n70 4.5005
R599 VSS.n247 VSS.n70 4.5005
R600 VSS.n141 VSS.n70 4.5005
R601 VSS.n248 VSS.n70 4.5005
R602 VSS.n140 VSS.n70 4.5005
R603 VSS.n249 VSS.n70 4.5005
R604 VSS.n139 VSS.n70 4.5005
R605 VSS.n250 VSS.n70 4.5005
R606 VSS.n138 VSS.n70 4.5005
R607 VSS.n251 VSS.n70 4.5005
R608 VSS.n137 VSS.n70 4.5005
R609 VSS.n252 VSS.n70 4.5005
R610 VSS.n136 VSS.n70 4.5005
R611 VSS.n253 VSS.n70 4.5005
R612 VSS.n135 VSS.n70 4.5005
R613 VSS.n254 VSS.n70 4.5005
R614 VSS.n134 VSS.n70 4.5005
R615 VSS.n255 VSS.n70 4.5005
R616 VSS.n133 VSS.n70 4.5005
R617 VSS.n256 VSS.n70 4.5005
R618 VSS.n132 VSS.n70 4.5005
R619 VSS.n4502 VSS.n70 4.5005
R620 VSS.n4504 VSS.n70 4.5005
R621 VSS.n193 VSS.n66 4.5005